ver_1.2
     RDKit          3D

 14 15  0  0  0  0  0  0  0  0999 V2000
    2.8742    1.7939   -0.0225 C   0  0  0  0  0  0  0  0  0  0  0  0
    2.1431    0.5249   -0.0060 N   0  0  0  0  0  0  0  0  0  0  0  0
    2.6718   -0.7109    0.0108 C   0  0  0  0  0  0  0  0  0  0  0  0
    1.6896   -1.6292    0.0225 N   0  0  0  0  0  0  0  0  0  0  0  0
    0.4985   -1.0050    0.0136 C   0  0  0  0  0  0  0  0  0  0  0  0
    0.8120    0.3390   -0.0041 C   0  0  0  0  0  0  0  0  0  0  0  0
   -0.2141    1.2838   -0.0172 C   0  0  0  0  0  0  0  0  0  0  0  0
    0.0677    2.5110   -0.0334 O   0  0  0  0  0  0  0  0  0  0  0  0
   -1.4703    0.8087   -0.0115 N   0  0  0  0  0  0  0  0  0  0  0  0
   -1.7399   -0.5063    0.0059 C   0  0  0  0  0  0  0  0  0  0  0  0
   -2.9485   -0.8949    0.0105 O   0  0  0  0  0  0  0  0  0  0  0  0
   -0.7764   -1.4420    0.0188 N   0  0  0  0  0  0  0  0  0  0  0  0
   -1.0645   -2.8724    0.0378 C   0  0  0  0  0  0  0  0  0  0  0  0
   -2.5432    1.7995   -0.0252 C   0  0  0  0  0  0  0  0  0  0  0  0
  1  2  1  0
  2  3  1  0
  3  4  2  0
  4  5  1  0
  5  6  2  0
  6  7  1  0
  7  8  2  0
  7  9  1  0
  9 10  1  0
 10 11  2  0
 10 12  1  0
 12 13  1  0
  9 14  1  0
  6  2  1  0
 12  5  1  0
M  END
>  <ref_url>  (1) 
https://github.com/matteoferla/EV-A71-2A-elaborations

>  <submitter_name>  (1) 
Matteo Ferla

>  <submitter_email>  (1) 
matteo.ferla@stats.ox.ac.uk

>  <submitter_institution>  (1) 
University of Oxford

>  <generation_date>  (1) 
2024-02-14

>  <method>  (1) 
ROCS

>  <rationale>  (1) 
rationale

>  <experiment>  (1) 
experiment

>  <cluster_label>  (1) 
cluster_label

>  <cluster_rank>  (1) 
cluster_rank

>  <N_interactions>  (1) 
N_interactions

>  <∆∆G>  (1) 
∆∆G

>  <comRMSD>  (1) 
comRMSD

>  <ROCS_TanimotoCombo>  (1) 
ROCS_TanimotoCombo

>  <ROCS_ShapeTanimoto>  (1) 
ROCS_ShapeTanimoto

>  <ROCS_ColorTanimoto>  (1) 
ROCS_ColorTanimoto

>  <ref_pdb>  (1) 
A71x0310a

>  <ref_mols>  (1) 
nan

>  <original SMILES>  (1) 
nan

>  <origin>  (1) 
A71-ROCS-iter2.sdf

>  <butcher #BAD>  (1) 
14

>  <butcher #GOOD>  (1) 
0

>  <butcher #protein clash>  (1) 
3

>  <butcher #solvent space>  (1) 
11

>  <butcher #pocket>  (1) 
0

>  <butcher #P1>  (1) 
0

>  <butcher #P2>  (1) 
0

>  <butcher #P1'>  (1) 
0

>  <butcher #P2'>  (1) 
0

>  <butcher #P3>  (1) 
0

>  <butcher #P4>  (1) 
0

>  <butcher #P5>  (1) 
0

>  <butcher #P6>  (1) 
0

$$$$
EN300_26666438
     RDKit          3D

 26 28  0  0  0  0  0  0  0  0999 V2000
    5.8560   15.4720   22.7440 C   0  0  0  0  0  0  0  0  0  0  0  0
    6.3070   14.6850   21.5040 C   0  0  0  0  0  0  0  0  0  0  0  0
    4.9840   14.1390   20.9140 C   0  0  0  0  0  0  0  0  0  0  0  0
    7.1440   15.5210   20.5390 C   0  0  0  0  0  0  0  0  0  0  0  0
    7.3230   13.7380   21.8190 O   0  0  0  0  0  0  0  0  0  0  0  0
    8.5600   14.2660   21.6630 C   0  0  0  0  0  0  0  0  0  0  0  0
    8.9230   15.0050   20.7660 O   0  0  0  0  0  0  0  0  0  0  0  0
    9.3530   13.8580   22.6520 N   0  0  0  0  0  0  0  0  0  0  0  0
   10.7070   14.2790   22.6030 C   0  0  0  0  0  0  0  0  0  0  0  0
   11.4090   14.2990   21.2450 C   0  0  0  0  0  0  0  0  0  0  0  0
   12.8680   14.7530   21.1940 C   0  0  0  0  0  0  0  0  0  0  0  0
   13.4820   15.1500   22.5270 C   0  0  0  0  0  0  0  0  0  0  0  0
   12.7990   15.1220   23.7160 C   0  0  0  0  0  0  0  0  0  0  0  0
   11.5060   14.7330   23.7960 C   0  0  0  0  0  0  0  0  0  0  0  0
   10.8610   14.8360   25.3780 Cl  0  0  0  0  0  0  0  0  0  0  0  0
    9.0810   12.5940   23.2410 C   0  0  0  0  0  0  0  0  0  0  0  0
    9.7980   11.5380   22.8160 N   0  0  0  0  0  0  0  0  0  0  0  0
    9.5090   10.3640   23.3550 C   0  0  0  0  0  0  0  0  0  0  0  0
   10.3990    8.9700   22.7870 S   0  0  0  0  0  0  0  0  0  0  0  0
    8.5840   10.1470   24.2880 N   0  0  0  0  0  0  0  0  0  0  0  0
    7.8850   11.1980   24.7040 C   0  0  0  0  0  0  0  0  0  0  0  0
    6.9100   10.9990   25.6680 C   0  0  0  0  0  0  0  0  0  0  0  0
    6.1220   12.0430   26.1540 C   0  0  0  0  0  0  0  0  0  0  0  0
    6.3100   13.3250   25.6680 C   0  0  0  0  0  0  0  0  0  0  0  0
    7.2840   13.5460   24.7040 C   0  0  0  0  0  0  0  0  0  0  0  0
    8.0830   12.4850   24.2100 C   0  0  0  0  0  0  0  0  0  0  0  0
  1  2  1  0
  2  3  1  0
  2  4  1  0
  2  5  1  0
  5  6  1  0
  6  7  2  0
  6  8  1  0
  8  9  1  0
  9 10  2  0
 10 11  1  0
 11 12  2  0
 12 13  1  0
 13 14  2  0
 14 15  1  0
  8 16  1  0
 16 17  2  0
 17 18  1  0
 18 19  1  0
 18 20  2  0
 20 21  1  0
 21 22  2  0
 22 23  1  0
 23 24  2  0
 24 25  1  0
 25 26  2  0
 14  9  1  0
 26 16  1  0
 26 21  1  0
A    1
 C1 
A    2
 C2 
A    3
 C3 
A    4
 C4 
A    5
 O1 
A    6
 C5 
A    7
 O2 
A    8
 N1 
A    9
 C6 
A   10
 C7 
A   11
 C8 
A   12
 C9 
A   13
 C10
A   14
 C11
A   15
CL1 
A   16
 C12
A   17
 N2 
A   18
 C13
A   19
 S1 
A   20
 N3 
A   21
 C14
A   22
 C15
A   23
 C16
A   24
 C17
A   25
 C18
A   26
 C19
M  END
>  <ref_url>  (2) 
nan

>  <submitter_name>  (2) 
nan

>  <submitter_email>  (2) 
nan

>  <submitter_institution>  (2) 
nan

>  <generation_date>  (2) 
nan

>  <method>  (2) 
nan

>  <rationale>  (2) 
info info set:bb_whole;hbond:S87+S105+G127; hydroph_interaction:Y89+Y90+V84; 

>  <experiment>  (2) 
bb_whole

>  <cluster_label>  (2) 
3

>  <cluster_rank>  (2) 
1

>  <N_interactions>  (2) 
6

>  <∆∆G>  (2) 
-11.29999

>  <comRMSD>  (2) 
0.535039

>  <ROCS_TanimotoCombo>  (2) 
0.435

>  <ROCS_ShapeTanimoto>  (2) 
0.282

>  <ROCS_ColorTanimoto>  (2) 
0.152

>  <ref_pdb>  (2) 
A71x0310a

>  <ref_mols>  (2) 
A71x0446a,A71x1080a,A71x0812a,A71x0719a,A71x1140a,A71x0528a,A71x0310a

>  <original SMILES>  (2) 
CC(C)(C)OC(=O)N(c1ccccc1Cl)c1nc(S)nc2ccccc12

>  <origin>  (2) 
A71-ROCS-iter2.sdf

>  <butcher #BAD>  (2) 
4

>  <butcher #GOOD>  (2) 
22

>  <butcher #protein clash>  (2) 
3

>  <butcher #solvent space>  (2) 
1

>  <butcher #pocket>  (2) 
22

>  <butcher #P1>  (2) 
15

>  <butcher #P2>  (2) 
2

>  <butcher #P1'>  (2) 
4

>  <butcher #P2'>  (2) 
0

>  <butcher #P3>  (2) 
1

>  <butcher #P4>  (2) 
0

>  <butcher #P5>  (2) 
0

>  <butcher #P6>  (2) 
0

$$$$
Z45507458
     RDKit          3D

 18 19  0  0  0  0  0  0  0  0999 V2000
   13.8670   16.0520   20.5740 C   0  0  0  0  0  0  0  0  0  0  0  0
   12.6740   15.3820   20.9320 N   0  0  0  0  0  0  0  0  0  0  0  0
   11.8340   16.1830   21.7260 C   0  0  0  0  0  0  0  0  0  0  0  0
   12.0210   15.7470   23.0100 C   0  0  0  0  0  0  0  0  0  0  0  0
   11.3130   14.4830   23.1400 N   0  0  0  0  0  0  0  0  0  0  0  0
    9.9930   14.0930   22.1290 S   0  0  0  0  0  6  0  0  0  0  0  0
    8.8260   14.8560   22.2880 O   0  0  0  0  0  0  0  0  0  0  0  0
   10.4590   13.8840   20.8090 O   0  0  0  0  0  0  0  0  0  0  0  0
    9.4260   12.7560   22.9880 C   0  0  0  0  0  0  0  0  0  0  0  0
    9.8540   11.4400   22.8840 C   0  0  0  0  0  0  0  0  0  0  0  0
    9.2750   10.4500   23.6630 C   0  0  0  0  0  0  0  0  0  0  0  0
    8.2660   10.7740   24.5530 C   0  0  0  0  0  0  0  0  0  0  0  0
    7.7050    9.8560   25.2840 F   0  0  0  0  0  0  0  0  0  0  0  0
    7.8000   12.0400   24.7180 C   0  0  0  0  0  0  0  0  0  0  0  0
    6.5480   12.3590   25.8560 Cl  0  0  0  0  0  0  0  0  0  0  0  0
    8.3110   13.0830   23.9870 C   0  0  0  0  0  0  0  0  0  0  0  0
   12.2960   13.5780   22.6900 C   0  0  0  0  0  0  0  0  0  0  0  0
   13.0580   14.1290   21.6310 C   0  0  0  0  0  0  0  0  0  0  0  0
  1  2  1  0
  2  3  1  0
  3  4  1  0
  4  5  1  0
  5  6  1  0
  6  7  2  0
  6  8  2  0
  6  9  1  0
  9 10  2  0
 10 11  1  0
 11 12  2  0
 12 13  1  0
 12 14  1  0
 14 15  1  0
 14 16  2  0
  5 17  1  0
 17 18  1  0
 18  2  1  0
 16  9  1  0
A    1
 C1 
A    2
 N1 
A    3
 C2 
A    4
 C3 
A    5
 N2 
A    6
 S1 
A    7
 O1 
A    8
 O2 
A    9
 C4 
A   10
 C5 
A   11
 C6 
A   12
 C7 
A   13
 F1 
A   14
 C8 
A   15
CL1 
A   16
 C9 
A   17
 C10
A   18
 C11
M  END
>  <ref_url>  (3) 
nan

>  <submitter_name>  (3) 
nan

>  <submitter_email>  (3) 
nan

>  <submitter_institution>  (3) 
nan

>  <generation_date>  (3) 
nan

>  <method>  (3) 
nan

>  <rationale>  (3) 
info info set:3d;halogenbond:S105; hbond:S87; saltbridge:D39; 

>  <experiment>  (3) 
3d

>  <cluster_label>  (3) 
19

>  <cluster_rank>  (3) 
1

>  <N_interactions>  (3) 
3

>  <∆∆G>  (3) 
-0.002186

>  <comRMSD>  (3) 
0.47978

>  <ROCS_TanimotoCombo>  (3) 
0.31

>  <ROCS_ShapeTanimoto>  (3) 
0.21

>  <ROCS_ColorTanimoto>  (3) 
0.1

>  <ref_pdb>  (3) 
A71x0310a

>  <ref_mols>  (3) 
A71x0446a,A71x1080a,A71x0812a,A71x0719a,A71x1140a,A71x0528a,A71x0310a

>  <original SMILES>  (3) 
CN1CCN(S(=O)(=O)c2ccc(F)c(Cl)c2)CC1

>  <origin>  (3) 
A71-ROCS-iter2.sdf

>  <butcher #BAD>  (3) 
3

>  <butcher #GOOD>  (3) 
15

>  <butcher #protein clash>  (3) 
2

>  <butcher #solvent space>  (3) 
1

>  <butcher #pocket>  (3) 
15

>  <butcher #P1>  (3) 
11

>  <butcher #P2>  (3) 
3

>  <butcher #P1'>  (3) 
1

>  <butcher #P2'>  (3) 
0

>  <butcher #P3>  (3) 
0

>  <butcher #P4>  (3) 
0

>  <butcher #P5>  (3) 
0

>  <butcher #P6>  (3) 
0

$$$$
EN300_27782356
     RDKit          3D

 14 14  0  0  0  0  0  0  0  0999 V2000
    4.9380    8.0330   28.0680 C   0  0  0  0  0  0  0  0  0  0  0  0
    5.4900    9.4430   27.9290 C   0  0  0  0  0  0  0  0  0  0  0  0
    6.3330    9.6270   26.7630 O   0  0  0  0  0  0  0  0  0  0  0  0
    6.3250   10.8800   26.2730 C   0  0  0  0  0  0  0  0  0  0  0  0
    5.4400   11.6510   26.6170 O   0  0  0  0  0  0  0  0  0  0  0  0
    7.4440   11.3230   25.2980 C   0  0  0  0  0  0  0  0  0  0  0  0
    7.5080   12.9240   25.3940 C   0  0  0  0  0  0  0  0  0  0  0  0
    8.6330   13.3650   24.3850 C   0  0  0  0  0  0  0  0  0  0  0  0
    9.4090   12.4260   23.5660 C   0  0  0  0  0  0  0  0  0  0  0  0
   10.4210   12.9920   22.6700 N   0  0  0  0  0  0  0  0  0  0  0  0
    9.1430   10.9970   23.6730 C   0  0  0  0  0  0  0  0  0  0  0  0
   10.0020   10.3370   22.7760 N   0  0  0  0  0  0  0  0  0  0  0  0
   10.3320    9.0170   23.0690 C   0  0  0  0  0  0  0  0  0  0  0  0
    8.1950   10.4890   24.5170 N   0  0  0  0  0  0  0  0  0  0  0  0
  1  2  1  0
  2  3  1  0
  3  4  1  0
  4  5  2  0
  4  6  1  0
  6  7  2  0
  7  8  1  0
  8  9  2  0
  9 10  1  0
  9 11  1  0
 11 12  1  0
 12 13  1  0
 11 14  2  0
 14  6  1  0
A    1
 C1 
A    2
 C2 
A    3
 O1 
A    4
 C3 
A    5
 O2 
A    6
 C4 
A    7
 C5 
A    8
 C6 
A    9
 C7 
A   10
 N1 
A   11
 C8 
A   12
 N2 
A   13
 C9 
A   14
 N3 
M  END
>  <ref_url>  (4) 
nan

>  <submitter_name>  (4) 
nan

>  <submitter_email>  (4) 
nan

>  <submitter_institution>  (4) 
nan

>  <generation_date>  (4) 
nan

>  <method>  (4) 
nan

>  <rationale>  (4) 
info info set:bb_densepocket2;hbond:S105+S125; hydroph_interaction:P107+E106; 

>  <experiment>  (4) 
bb_densepocket2

>  <cluster_label>  (4) 
4

>  <cluster_rank>  (4) 
1

>  <N_interactions>  (4) 
5

>  <∆∆G>  (4) 
-3.582513

>  <comRMSD>  (4) 
0.939464

>  <ROCS_TanimotoCombo>  (4) 
0.621

>  <ROCS_ShapeTanimoto>  (4) 
0.227

>  <ROCS_ColorTanimoto>  (4) 
0.394

>  <ref_pdb>  (4) 
A71x0310a

>  <ref_mols>  (4) 
A71x0446a,A71x1080a,A71x0812a,A71x0719a,A71x1140a,A71x0528a,A71x0310a

>  <original SMILES>  (4) 
CCOC(=O)c1ccc(N)c(NC)n1

>  <origin>  (4) 
A71-ROCS-iter2.sdf

>  <butcher #BAD>  (4) 
3

>  <butcher #GOOD>  (4) 
11

>  <butcher #protein clash>  (4) 
0

>  <butcher #solvent space>  (4) 
3

>  <butcher #pocket>  (4) 
11

>  <butcher #P1>  (4) 
11

>  <butcher #P2>  (4) 
0

>  <butcher #P1'>  (4) 
0

>  <butcher #P2'>  (4) 
0

>  <butcher #P3>  (4) 
0

>  <butcher #P4>  (4) 
0

>  <butcher #P5>  (4) 
0

>  <butcher #P6>  (4) 
0

$$$$
EN300_2908013
     RDKit          3D

 10 10  0  0  0  0  0  0  0  0999 V2000
    9.9540    8.7260   22.5840 C   0  0  0  0  0  0  0  0  0  0  0  0
   10.4160    9.9340   23.1310 N   0  0  0  0  0  0  0  0  0  0  0  0
    9.4000   10.6590   23.7560 C   0  0  0  0  0  0  0  0  0  0  0  0
    8.4720   10.0560   24.5450 N   0  0  0  0  0  0  0  0  0  0  0  0
    7.5430   10.8360   25.1250 C   0  0  0  0  0  0  0  0  0  0  0  0
    7.4580   12.3290   24.9470 C   0  0  0  0  0  0  0  0  0  0  0  0
    8.4570   12.7930   24.1140 C   0  0  0  0  0  0  0  0  0  0  0  0
    8.0430   14.3050   24.1690 C   0  0  0  0  0  0  0  0  0  0  0  0
    9.4390   12.0430   23.5000 C   0  0  0  0  0  0  0  0  0  0  0  0
   10.4400   12.6160   22.6620 N   0  0  0  0  0  0  0  0  0  0  0  0
  1  2  1  0
  2  3  1  0
  3  4  2  0
  4  5  1  0
  5  6  2  0
  6  7  1  0
  7  8  1  0
  7  9  2  0
  9 10  1  0
  9  3  1  0
A    1
 C1 
A    2
 N1 
A    3
 C2 
A    4
 N2 
A    5
 C3 
A    6
 C4 
A    7
 C5 
A    8
 C6 
A    9
 C7 
A   10
 N3 
M  END
>  <ref_url>  (5) 
nan

>  <submitter_name>  (5) 
nan

>  <submitter_email>  (5) 
nan

>  <submitter_institution>  (5) 
nan

>  <generation_date>  (5) 
nan

>  <method>  (5) 
nan

>  <rationale>  (5) 
info info set:bb_densepocket2;hbond:S125+P107; 

>  <experiment>  (5) 
bb_densepocket2

>  <cluster_label>  (5) 
11

>  <cluster_rank>  (5) 
1

>  <N_interactions>  (5) 
2

>  <∆∆G>  (5) 
-5.89769

>  <comRMSD>  (5) 
0.57136

>  <ROCS_TanimotoCombo>  (5) 
0.638

>  <ROCS_ShapeTanimoto>  (5) 
0.201

>  <ROCS_ColorTanimoto>  (5) 
0.437

>  <ref_pdb>  (5) 
A71x0310a

>  <ref_mols>  (5) 
A71x0446a,A71x1080a,A71x0812a,A71x0719a,A71x1140a,A71x0528a,A71x0310a

>  <original SMILES>  (5) 
CNc1nccc(C)c1N

>  <origin>  (5) 
A71-ROCS-iter2.sdf

>  <butcher #BAD>  (5) 
1

>  <butcher #GOOD>  (5) 
9

>  <butcher #protein clash>  (5) 
1

>  <butcher #solvent space>  (5) 
0

>  <butcher #pocket>  (5) 
9

>  <butcher #P1>  (5) 
9

>  <butcher #P2>  (5) 
0

>  <butcher #P1'>  (5) 
0

>  <butcher #P2'>  (5) 
0

>  <butcher #P3>  (5) 
0

>  <butcher #P4>  (5) 
0

>  <butcher #P5>  (5) 
0

>  <butcher #P6>  (5) 
0

$$$$
Z1078498278
     RDKit          3D

 18 19  0  0  0  0  0  0  0  0999 V2000
    6.4570   12.1030   25.9470 C   0  0  0  0  0  0  0  0  0  0  0  0
    7.5810   11.8620   24.9450 C   0  0  0  0  0  0  0  0  0  0  0  0
    8.0350   10.4500   24.9230 C   0  0  0  0  0  0  0  0  0  0  0  0
    9.1490    9.7490   24.0560 C   0  0  0  0  0  0  0  0  0  0  0  0
    9.6620   10.9420   23.2130 C   0  0  0  0  0  0  0  0  0  0  0  0
   10.6250   10.6310   22.3730 F   0  0  0  0  0  0  0  0  0  0  0  0
    9.1340   12.3830   23.2880 C   0  0  0  0  0  0  0  0  0  0  0  0
    9.7780   13.3900   22.3170 C   0  0  0  0  0  0  0  0  0  0  0  0
    8.9950   13.9110   21.5430 O   0  0  0  0  0  0  0  0  0  0  0  0
   11.1090   13.6790   22.3040 N   0  0  0  0  0  0  0  0  0  0  0  0
   11.9700   13.7920   23.4660 C   0  0  0  0  0  0  0  0  0  0  0  0
   12.8650   14.9320   23.0960 C   0  0  0  0  0  0  0  0  0  0  0  0
   12.3840   15.4670   21.9170 C   0  0  0  0  0  0  0  0  0  0  0  0
   11.4890   14.6300   21.2310 C   0  0  2  0  0  0  0  0  0  0  0  0
   10.1770   15.3440   20.8330 C   0  0  0  0  0  0  0  0  0  0  0  0
    9.0240   15.0340   21.1230 O   0  0  0  0  0  0  0  0  0  0  0  0
   10.3170   16.5040   20.0640 O   0  0  0  0  0  0  0  0  0  0  0  0
    8.1370   12.8000   24.1310 C   0  0  0  0  0  0  0  0  0  0  0  0
  1  2  1  0
  2  3  2  0
  3  4  1  0
  4  5  2  0
  5  6  1  0
  5  7  1  0
  7  8  1  0
  8  9  2  0
  8 10  1  0
 10 11  1  0
 11 12  1  0
 12 13  1  0
 13 14  1  0
 14 15  1  1
 15 16  2  0
 15 17  1  0
  7 18  2  0
 18  2  1  0
 14 10  1  0
A    1
 C1 
A    2
 C2 
A    3
 C3 
A    4
 C4 
A    5
 C5 
A    6
 F1 
A    7
 C6 
A    8
 C7 
A    9
 O1 
A   10
 N1 
A   11
 C8 
A   12
 C9 
A   13
 C10
A   14
 C11
A   15
 C12
A   16
 O2 
A   17
 O3 
A   18
 C13
M  END
>  <ref_url>  (6) 
nan

>  <submitter_name>  (6) 
nan

>  <submitter_email>  (6) 
nan

>  <submitter_institution>  (6) 
nan

>  <generation_date>  (6) 
nan

>  <method>  (6) 
nan

>  <rationale>  (6) 
info info set:3d;halogenbond:C110; hbond:S87+G127; hydroph_interaction:Y90; 

>  <experiment>  (6) 
3d

>  <cluster_label>  (6) 
2

>  <cluster_rank>  (6) 
1

>  <N_interactions>  (6) 
4

>  <∆∆G>  (6) 
-2.228437

>  <comRMSD>  (6) 
0.700812

>  <ROCS_TanimotoCombo>  (6) 
0.338

>  <ROCS_ShapeTanimoto>  (6) 
0.223

>  <ROCS_ColorTanimoto>  (6) 
0.115

>  <ref_pdb>  (6) 
A71x0310a

>  <ref_mols>  (6) 
A71x0446a,A71x1080a,A71x0812a,A71x0719a,A71x1140a,A71x0528a,A71x0310a

>  <original SMILES>  (6) 
Cc1ccc(F)c(C(=O)N2CCC[C@@H]2C(=O)O)c1

>  <origin>  (6) 
A71-ROCS-iter2.sdf

>  <butcher #BAD>  (6) 
1

>  <butcher #GOOD>  (6) 
17

>  <butcher #protein clash>  (6) 
1

>  <butcher #solvent space>  (6) 
0

>  <butcher #pocket>  (6) 
17

>  <butcher #P1>  (6) 
11

>  <butcher #P2>  (6) 
3

>  <butcher #P1'>  (6) 
3

>  <butcher #P2'>  (6) 
0

>  <butcher #P3>  (6) 
0

>  <butcher #P4>  (6) 
0

>  <butcher #P5>  (6) 
0

>  <butcher #P6>  (6) 
0

$$$$
EN300_7489981
     RDKit          3D

 17 17  0  0  0  0  0  0  0  0999 V2000
    5.6220   16.2090   23.3420 C   0  0  0  0  0  0  0  0  0  0  0  0
    6.0550   15.9500   21.9970 N   0  0  0  0  0  0  0  0  0  0  0  0
    6.0520   14.3880   21.7940 S   0  0  0  0  0  6  0  0  0  0  0  0
    6.0750   14.0730   23.2060 O   0  0  0  0  0  0  0  0  0  0  0  0
    7.1910   13.9250   21.0800 O   0  0  0  0  0  0  0  0  0  0  0  0
    4.5070   13.8310   21.0020 C   0  0  0  0  0  0  0  0  0  0  0  0
    3.3000   13.7430   21.6570 C   0  0  0  0  0  0  0  0  0  0  0  0
    2.1160   13.1800   21.0290 C   0  0  0  0  0  0  0  0  0  0  0  0
    2.1280   12.7010   19.7310 C   0  0  0  0  0  0  0  0  0  0  0  0
    1.0090   12.1410   19.2000 O   0  0  0  0  0  0  0  0  0  0  0  0
    0.2620   12.9090   17.9930 S   0  0  0  0  0  6  0  0  0  0  0  0
    0.0630   14.2790   18.4140 O   0  0  0  0  0  0  0  0  0  0  0  0
    0.9020   12.5580   16.7470 O   0  0  0  0  0  0  0  0  0  0  0  0
   -1.1910   12.2720   17.9160 F   0  0  0  0  0  0  0  0  0  0  0  0
    3.3370   12.8260   19.0360 C   0  0  0  0  0  0  0  0  0  0  0  0
    3.5660   12.4080   17.7270 N   0  0  0  0  0  0  0  0  0  0  0  0
    4.4280   13.3850   19.6760 C   0  0  0  0  0  0  0  0  0  0  0  0
  1  2  1  0
  2  3  1  0
  3  4  2  0
  3  5  2  0
  3  6  1  0
  6  7  2  0
  7  8  1  0
  8  9  2  0
  9 10  1  0
 10 11  1  0
 11 12  2  0
 11 13  2  0
 11 14  1  0
  9 15  1  0
 15 16  1  0
 15 17  2  0
 17  6  1  0
A    1
 C1 
A    2
 N1 
A    3
 S1 
A    4
 O1 
A    5
 O2 
A    6
 C2 
A    7
 C3 
A    8
 C4 
A    9
 C5 
A   10
 O3 
A   11
 S2 
A   12
 O4 
A   13
 O5 
A   14
 F1 
A   15
 C6 
A   16
 N2 
A   17
 C7 
M  END
>  <ref_url>  (7) 
nan

>  <submitter_name>  (7) 
nan

>  <submitter_email>  (7) 
nan

>  <submitter_institution>  (7) 
nan

>  <generation_date>  (7) 
nan

>  <method>  (7) 
nan

>  <rationale>  (7) 
info info set:sulfonimide_joint;hbond:G127+T126+E85+F83; hydroph_interaction:V84; 

>  <experiment>  (7) 
sulfonimide_joint

>  <cluster_label>  (7) 
15

>  <cluster_rank>  (7) 
1

>  <N_interactions>  (7) 
7

>  <∆∆G>  (7) 
-2.436369

>  <comRMSD>  (7) 
0.705624

>  <ROCS_TanimotoCombo>  (7) 
0.337

>  <ROCS_ShapeTanimoto>  (7) 
0.178

>  <ROCS_ColorTanimoto>  (7) 
0.159

>  <ref_pdb>  (7) 
A71x0310a

>  <ref_mols>  (7) 
A71x0446a,A71x1080a,A71x0812a,A71x0719a,A71x1140a,A71x0528a,A71x0310a

>  <original SMILES>  (7) 
CNS(=O)(=O)c1ccc(OS(=O)(=O)F)c(N)c1

>  <origin>  (7) 
A71-ROCS-iter2.sdf

>  <butcher #BAD>  (7) 
3

>  <butcher #GOOD>  (7) 
14

>  <butcher #protein clash>  (7) 
2

>  <butcher #solvent space>  (7) 
1

>  <butcher #pocket>  (7) 
14

>  <butcher #P1>  (7) 
0

>  <butcher #P2>  (7) 
1

>  <butcher #P1'>  (7) 
0

>  <butcher #P2'>  (7) 
0

>  <butcher #P3>  (7) 
6

>  <butcher #P4>  (7) 
1

>  <butcher #P5>  (7) 
5

>  <butcher #P6>  (7) 
1

$$$$
Z52591645
     RDKit          3D

 28 31  0  0  0  0  0  0  0  0999 V2000
   15.5110   13.1650   23.4280 C   0  0  0  0  0  0  0  0  0  0  0  0
   14.3110   13.6340   24.0450 O   0  0  0  0  0  0  0  0  0  0  0  0
   13.2970   14.0110   23.2010 C   0  0  0  0  0  0  0  0  0  0  0  0
   13.4710   14.5280   21.9210 C   0  0  0  0  0  0  0  0  0  0  0  0
   12.3680   14.8800   21.1390 C   0  0  0  0  0  0  0  0  0  0  0  0
   11.0670   14.7270   21.6090 C   0  0  0  0  0  0  0  0  0  0  0  0
    9.9740   15.1230   20.7300 C   0  0  0  0  0  0  0  0  0  0  0  0
   10.2790   15.7750   19.5740 N   0  0  0  0  0  0  0  0  0  0  0  0
    8.8070   14.8900   21.0170 O   0  0  0  0  0  0  0  0  0  0  0  0
   10.8790   14.2040   22.8930 C   0  0  0  0  0  0  0  0  0  0  0  0
    9.6050   14.0290   23.3890 O   0  0  0  0  0  0  0  0  0  0  0  0
    9.2740   12.7010   23.6280 C   0  0  0  0  0  0  0  0  0  0  0  0
   10.0400   11.7110   23.0540 N   0  0  0  0  0  0  0  0  0  0  0  0
    9.7260   10.4310   23.2840 C   0  0  0  0  0  0  0  0  0  0  0  0
   10.4790    9.4750   22.6530 C   0  0  0  0  0  0  0  0  0  0  0  0
    8.7490    9.9790   24.0500 N   0  0  0  0  0  0  0  0  0  0  0  0
    8.0250   10.9630   24.5920 C   0  0  0  0  0  0  0  0  0  0  0  0
    6.7270   10.5480   25.6070 S   0  0  0  0  0  0  0  0  0  0  0  0
    6.3430   12.1670   25.8090 C   0  0  0  0  0  0  0  0  0  0  0  0
    7.1720   13.0250   25.1520 C   0  0  0  0  0  0  0  0  0  0  0  0
    6.8140   14.4480   25.3520 C   0  0  0  0  0  0  0  0  0  0  0  0
    5.7290   14.9580   24.6120 C   0  0  0  0  0  0  0  0  0  0  0  0
    5.4610   16.3950   25.0100 C   0  0  0  0  0  0  0  0  0  0  0  0
    6.2330   17.0460   25.9750 C   0  0  0  0  0  0  0  0  0  0  0  0
    7.2820   16.4370   26.5960 C   0  0  0  0  0  0  0  0  0  0  0  0
    7.5680   15.1440   26.2870 C   0  0  0  0  0  0  0  0  0  0  0  0
    8.1940   12.3360   24.4270 C   0  0  0  0  0  0  0  0  0  0  0  0
   11.9890   13.8530   23.6780 C   0  0  0  0  0  0  0  0  0  0  0  0
  1  2  1  0
  2  3  1  0
  3  4  2  0
  4  5  1  0
  5  6  2  0
  6  7  1  0
  7  8  1  0
  7  9  2  0
  6 10  1  0
 10 11  1  0
 11 12  1  0
 12 13  2  0
 13 14  1  0
 14 15  1  0
 14 16  2  0
 16 17  1  0
 17 18  1  0
 18 19  1  0
 19 20  2  0
 20 21  1  0
 21 22  2  0
 22 23  1  0
 23 24  2  0
 24 25  1  0
 25 26  2  0
 20 27  1  0
 10 28  2  0
 28  3  1  0
 27 12  1  0
 27 17  2  0
 26 21  1  0
A    1
 C1 
A    2
 O1 
A    3
 C2 
A    4
 C3 
A    5
 C4 
A    6
 C5 
A    7
 C6 
A    8
 N1 
A    9
 O2 
A   10
 C7 
A   11
 O3 
A   12
 C8 
A   13
 N2 
A   14
 C9 
A   15
 C10
A   16
 N3 
A   17
 C11
A   18
 S1 
A   19
 C12
A   20
 C13
A   21
 C14
A   22
 C15
A   23
 C16
A   24
 C17
A   25
 C18
A   26
 C19
A   27
 C20
A   28
 C21
M  END
>  <ref_url>  (8) 
nan

>  <submitter_name>  (8) 
nan

>  <submitter_email>  (8) 
nan

>  <submitter_institution>  (8) 
nan

>  <generation_date>  (8) 
nan

>  <method>  (8) 
nan

>  <rationale>  (8) 
info info set:screening_whole;hbond:S87+Q95; hydroph_interaction:P107+Y89+V124; 

>  <experiment>  (8) 
screening_whole

>  <cluster_label>  (8) 
18

>  <cluster_rank>  (8) 
1

>  <N_interactions>  (8) 
5

>  <∆∆G>  (8) 
-12.891471

>  <comRMSD>  (8) 
0.730983

>  <ROCS_TanimotoCombo>  (8) 
0.462

>  <ROCS_ShapeTanimoto>  (8) 
0.272

>  <ROCS_ColorTanimoto>  (8) 
0.189

>  <ref_pdb>  (8) 
A71x0310a

>  <ref_mols>  (8) 
A71x0446a,A71x1080a,A71x0812a,A71x0719a,A71x1140a,A71x0528a,A71x0310a

>  <original SMILES>  (8) 
COc1ccc(C(N)=O)c(Oc2nc(C)nc3scc(-c4ccccc4)c23)c1

>  <origin>  (8) 
A71-ROCS-iter2.sdf

>  <butcher #BAD>  (8) 
7

>  <butcher #GOOD>  (8) 
21

>  <butcher #protein clash>  (8) 
3

>  <butcher #solvent space>  (8) 
4

>  <butcher #pocket>  (8) 
21

>  <butcher #P1>  (8) 
13

>  <butcher #P2>  (8) 
4

>  <butcher #P1'>  (8) 
2

>  <butcher #P2'>  (8) 
0

>  <butcher #P3>  (8) 
2

>  <butcher #P4>  (8) 
0

>  <butcher #P5>  (8) 
0

>  <butcher #P6>  (8) 
0

$$$$
Z86302940
     RDKit          3D

 26 28  0  0  0  0  0  0  0  0999 V2000
   15.7270   13.1490   20.7240 C   0  0  0  0  0  0  0  0  0  0  0  0
   14.4170   13.3690   21.2200 C   0  0  0  0  0  0  0  0  0  0  0  0
   14.0030   14.5590   21.6440 C   0  0  0  0  0  0  0  0  0  0  0  0
   12.7740   14.5340   22.0670 C   0  0  0  0  0  0  0  0  0  0  0  0
   12.6170   14.1110   23.3430 C   0  0  0  0  0  0  0  0  0  0  0  0
   11.2880   13.9510   23.9560 C   0  0  0  0  0  0  0  0  0  0  0  0
   10.1670   14.3150   22.9780 C   0  0  0  0  0  0  0  0  0  0  0  0
    9.0380   14.2080   23.3310 O   0  0  0  0  0  0  0  0  0  0  0  0
    8.8410   12.8870   23.6980 C   0  0  0  0  0  0  0  0  0  0  0  0
    9.6960   11.9630   23.1930 N   0  0  0  0  0  0  0  0  0  0  0  0
    9.5580   10.6560   23.5050 C   0  0  0  0  0  0  0  0  0  0  0  0
   10.5480    9.5950   22.9040 C   0  0  0  0  0  0  0  0  0  0  0  0
   10.5110    9.5210   21.5820 F   0  0  0  0  0  0  0  0  0  0  0  0
   10.2980    8.3280   23.2460 F   0  0  0  0  0  0  0  0  0  0  0  0
   11.8590    9.7960   23.1590 F   0  0  0  0  0  0  0  0  0  0  0  0
    8.5290   10.2480   24.3650 N   0  0  0  0  0  0  0  0  0  0  0  0
    7.6860   11.1460   24.8740 C   0  0  0  0  0  0  0  0  0  0  0  0
    6.5220   10.7760   25.8370 C   0  0  0  0  0  0  0  0  0  0  0  0
    5.7300   11.8710   26.2620 C   0  0  0  0  0  0  0  0  0  0  0  0
    5.9080   13.3070   25.8790 C   0  0  0  0  0  0  0  0  0  0  0  0
    6.9380   13.6320   25.0350 C   0  0  0  0  0  0  0  0  0  0  0  0
    7.7990   12.6330   24.5410 C   0  0  0  0  0  0  0  0  0  0  0  0
   10.4250   14.7720   21.6660 C   0  0  0  0  0  0  0  0  0  0  0  0
    9.3250   15.0830   20.9040 O   0  0  0  0  0  0  0  0  0  0  0  0
    9.4400   16.1870   20.0090 C   0  0  0  0  0  0  0  0  0  0  0  0
   11.7300   14.8790   21.2220 C   0  0  0  0  0  0  0  0  0  0  0  0
  1  2  1  0
  2  3  2  3
  3  4  1  0
  4  5  2  0
  5  6  1  0
  6  7  2  0
  7  8  1  0
  8  9  1  0
  9 10  2  0
 10 11  1  0
 11 12  1  0
 12 13  1  0
 12 14  1  0
 12 15  1  0
 11 16  2  0
 16 17  1  0
 17 18  2  0
 18 19  1  0
 19 20  2  0
 20 21  1  0
 21 22  2  0
  7 23  1  0
 23 24  1  0
 24 25  1  0
 23 26  2  0
 26  4  1  0
 22  9  1  0
 22 17  1  0
A    1
 C1 
A    2
 C2 
A    3
 C3 
A    4
 C4 
A    5
 C5 
A    6
 C6 
A    7
 C7 
A    8
 O1 
A    9
 C8 
A   10
 N1 
A   11
 C9 
A   12
 C10
A   13
 F1 
A   14
 F2 
A   15
 F3 
A   16
 N2 
A   17
 C11
A   18
 C12
A   19
 C13
A   20
 C14
A   21
 C15
A   22
 C16
A   23
 C17
A   24
 O2 
A   25
 C18
A   26
 C19
M  END
>  <ref_url>  (9) 
nan

>  <submitter_name>  (9) 
nan

>  <submitter_email>  (9) 
nan

>  <submitter_institution>  (9) 
nan

>  <generation_date>  (9) 
nan

>  <method>  (9) 
nan

>  <rationale>  (9) 
info info set:screening_whole;halogenbond:P107; hbond:S87+G127; hydroph_interaction:P107+Y89+L22+N19; 

>  <experiment>  (9) 
screening_whole

>  <cluster_label>  (9) 
13

>  <cluster_rank>  (9) 
1

>  <N_interactions>  (9) 
7

>  <∆∆G>  (9) 
-2.936442

>  <comRMSD>  (9) 
0.930911

>  <ROCS_TanimotoCombo>  (9) 
0.472

>  <ROCS_ShapeTanimoto>  (9) 
0.275

>  <ROCS_ColorTanimoto>  (9) 
0.198

>  <ref_pdb>  (9) 
A71x0310a

>  <ref_mols>  (9) 
A71x0446a,A71x1080a,A71x0812a,A71x0719a,A71x1140a,A71x0528a,A71x0310a

>  <original SMILES>  (9) 
CC=Cc1ccc(Oc2nc(C(F)(F)F)nc3ccccc23)c(OC)c1

>  <origin>  (9) 
A71-ROCS-iter2.sdf

>  <butcher #BAD>  (9) 
6

>  <butcher #GOOD>  (9) 
20

>  <butcher #protein clash>  (9) 
6

>  <butcher #solvent space>  (9) 
0

>  <butcher #pocket>  (9) 
20

>  <butcher #P1>  (9) 
14

>  <butcher #P2>  (9) 
4

>  <butcher #P1'>  (9) 
2

>  <butcher #P2'>  (9) 
0

>  <butcher #P3>  (9) 
0

>  <butcher #P4>  (9) 
0

>  <butcher #P5>  (9) 
0

>  <butcher #P6>  (9) 
0

$$$$
Z55915292
     RDKit          3D

 24 28  0  0  0  0  0  0  0  0999 V2000
    8.3360    9.0940   24.3550 O   0  0  0  0  0  0  0  0  0  0  0  0
    8.7300   10.1650   24.0760 C   0  0  0  0  0  0  0  0  0  0  0  0
    9.8910   10.3530   23.2720 N   0  0  0  0  0  0  0  0  0  0  0  0
   10.1670   11.5020   22.6320 N   0  0  0  0  0  0  0  0  0  0  0  0
    9.4590   12.5360   22.9230 C   0  0  0  0  0  0  0  0  0  0  0  0
    9.7890   13.7110   22.2250 C   0  0  0  0  0  0  0  0  0  0  0  0
    8.9060   14.3220   21.4560 N   0  0  0  0  0  0  0  0  0  0  0  0
    9.4850   15.4330   20.9580 N   0  0  0  0  0  0  0  0  0  0  0  0
   10.7000   15.4830   21.4550 C   0  0  0  0  0  0  0  0  0  0  0  0
   10.9780   14.3970   22.2160 N   0  0  0  0  0  0  0  0  0  0  0  0
   12.2380   14.1920   22.8160 C   0  0  0  0  0  0  0  0  0  0  0  0
   12.4700   13.2690   23.7840 C   0  0  0  0  0  0  0  0  0  0  0  0
   13.7100   13.0210   24.4000 C   0  0  0  0  0  0  0  0  0  0  0  0
   14.7980   13.7600   24.0720 C   0  0  0  0  0  0  0  0  0  0  0  0
   14.6180   14.7950   23.0220 C   0  0  0  0  0  0  0  0  0  0  0  0
   13.2810   14.9530   22.3770 C   0  0  0  0  0  0  0  0  0  0  0  0
   13.2710   16.1300   21.0770 S   0  0  0  0  0  0  0  0  0  0  0  0
   11.6500   16.5770   21.2870 C   0  0  0  0  0  0  0  0  0  0  0  0
    8.3470   12.5610   23.9370 C   0  0  0  0  0  0  0  0  0  0  0  0
    7.6420   13.6980   24.3390 C   0  0  0  0  0  0  0  0  0  0  0  0
    6.6170   13.6100   25.2930 C   0  0  0  0  0  0  0  0  0  0  0  0
    6.2860   12.3730   25.8600 C   0  0  0  0  0  0  0  0  0  0  0  0
    6.9860   11.2390   25.4660 C   0  0  0  0  0  0  0  0  0  0  0  0
    8.0050   11.3490   24.5070 C   0  0  0  0  0  0  0  0  0  0  0  0
  1  2  2  0
  2  3  1  0
  3  4  1  0
  4  5  2  0
  5  6  1  0
  6  7  2  0
  7  8  1  0
  8  9  2  0
  9 10  1  0
 10 11  1  0
 11 12  2  0
 12 13  1  0
 13 14  2  0
 14 15  1  0
 15 16  2  0
 16 17  1  0
 17 18  1  0
  5 19  1  0
 19 20  2  0
 20 21  1  0
 21 22  2  0
 22 23  1  0
 23 24  2  0
 24  2  1  0
 10  6  1  0
 16 11  1  0
 24 19  1  0
 18  9  1  0
A    1
 O1 
A    2
 C1 
A    3
 N1 
A    4
 N2 
A    5
 C2 
A    6
 C3 
A    7
 N3 
A    8
 N4 
A    9
 C4 
A   10
 N5 
A   11
 C5 
A   12
 C6 
A   13
 C7 
A   14
 C8 
A   15
 C9 
A   16
 C10
A   17
 S1 
A   18
 C11
A   19
 C12
A   20
 C13
A   21
 C14
A   22
 C15
A   23
 C16
A   24
 C17
M  END
>  <ref_url>  (10) 
nan

>  <submitter_name>  (10) 
nan

>  <submitter_email>  (10) 
nan

>  <submitter_institution>  (10) 
nan

>  <generation_date>  (10) 
nan

>  <method>  (10) 
nan

>  <rationale>  (10) 
info info set:screening_whole;hbond:S87+E106; hydroph_interaction:P107+Y89+H21; 

>  <experiment>  (10) 
screening_whole

>  <cluster_label>  (10) 
6

>  <cluster_rank>  (10) 
1

>  <N_interactions>  (10) 
5

>  <∆∆G>  (10) 
-2.687151

>  <comRMSD>  (10) 
0.524828

>  <ROCS_TanimotoCombo>  (10) 
0.467

>  <ROCS_ShapeTanimoto>  (10) 
0.267

>  <ROCS_ColorTanimoto>  (10) 
0.2

>  <ref_pdb>  (10) 
A71x0310a

>  <ref_mols>  (10) 
A71x0446a,A71x1080a,A71x0812a,A71x0719a,A71x1140a,A71x0528a,A71x0310a

>  <original SMILES>  (10) 
O=c1[nH]nc(-c2nnc3n2-c2ccccc2SC3)c2ccccc12

>  <origin>  (10) 
A71-ROCS-iter2.sdf

>  <butcher #BAD>  (10) 
5

>  <butcher #GOOD>  (10) 
19

>  <butcher #protein clash>  (10) 
5

>  <butcher #solvent space>  (10) 
0

>  <butcher #pocket>  (10) 
19

>  <butcher #P1>  (10) 
12

>  <butcher #P2>  (10) 
3

>  <butcher #P1'>  (10) 
4

>  <butcher #P2'>  (10) 
0

>  <butcher #P3>  (10) 
0

>  <butcher #P4>  (10) 
0

>  <butcher #P5>  (10) 
0

>  <butcher #P6>  (10) 
0

$$$$
Z54409144
     RDKit          3D

 18 19  0  0  0  0  0  0  0  0999 V2000
    9.2760   14.6620   25.0720 O   0  0  0  0  0  0  0  0  0  0  0  0
    9.8230   13.8310   24.3490 C   0  0  0  0  0  0  0  0  0  0  0  0
   10.9190   14.3170   23.4540 C   0  0  0  0  0  0  0  0  0  0  0  0
   12.2480   14.3790   23.7930 C   0  0  0  0  0  0  0  0  0  0  0  0
   13.1440   14.8650   22.8620 C   0  0  0  0  0  0  0  0  0  0  0  0
   12.7300   15.2790   21.5970 C   0  0  0  0  0  0  0  0  0  0  0  0
   11.3930   15.2110   21.2600 C   0  0  0  0  0  0  0  0  0  0  0  0
   10.5210   14.7270   22.2220 C   0  0  0  0  0  0  0  0  0  0  0  0
    9.1920   14.6180   22.0860 O   0  0  0  0  0  0  0  0  0  0  0  0
    8.7120   14.8980   20.8430 C   0  0  0  0  0  0  0  0  0  0  0  0
    7.5720   14.1860   20.9110 F   0  0  0  0  0  0  0  0  0  0  0  0
    9.5830   14.3560   19.9940 F   0  0  0  0  0  0  0  0  0  0  0  0
    9.4630   12.4990   24.2910 N   0  0  0  0  0  0  0  0  0  0  0  0
    8.0910   12.1120   24.5790 C   0  0  0  0  0  0  0  0  0  0  0  0
    7.9870   10.6180   24.8030 C   0  0  0  0  0  0  0  0  0  0  0  0
    8.5570    9.8090   23.7510 O   0  0  0  0  0  0  0  0  0  0  0  0
    9.8260   10.2370   23.2110 C   0  0  0  0  0  0  0  0  0  0  0  0
   10.0600   11.7550   23.1880 C   0  0  0  0  0  0  0  0  0  0  0  0
  1  2  2  0
  2  3  1  0
  3  4  2  0
  4  5  1  0
  5  6  2  0
  6  7  1  0
  7  8  2  0
  8  9  1  0
  9 10  1  0
 10 11  1  0
 10 12  1  0
  2 13  1  0
 13 14  1  0
 14 15  1  0
 15 16  1  0
 16 17  1  0
 17 18  1  0
  8  3  1  0
 18 13  1  0
A    1
 O1 
A    2
 C1 
A    3
 C2 
A    4
 C3 
A    5
 C4 
A    6
 C5 
A    7
 C6 
A    8
 C7 
A    9
 O2 
A   10
 C8 
A   11
 F1 
A   12
 F2 
A   13
 N1 
A   14
 C9 
A   15
 C10
A   16
 O3 
A   17
 C11
A   18
 C12
M  END
>  <ref_url>  (11) 
nan

>  <submitter_name>  (11) 
nan

>  <submitter_email>  (11) 
nan

>  <submitter_institution>  (11) 
nan

>  <generation_date>  (11) 
nan

>  <method>  (11) 
nan

>  <rationale>  (11) 
info info set:3d;halogenbond:S125+G127; hbond:S87; hydroph_interaction:Y89+Y90; 

>  <experiment>  (11) 
3d

>  <cluster_label>  (11) 
14

>  <cluster_rank>  (11) 
1

>  <N_interactions>  (11) 
5

>  <∆∆G>  (11) 
-2.268463

>  <comRMSD>  (11) 
0.601064

>  <ROCS_TanimotoCombo>  (11) 
0.359

>  <ROCS_ShapeTanimoto>  (11) 
0.213

>  <ROCS_ColorTanimoto>  (11) 
0.146

>  <ref_pdb>  (11) 
A71x0310a

>  <ref_mols>  (11) 
A71x0446a,A71x1080a,A71x0812a,A71x0719a,A71x1140a,A71x0528a,A71x0310a

>  <original SMILES>  (11) 
O=C(c1ccccc1OC(F)F)N1CCOCC1

>  <origin>  (11) 
A71-ROCS-iter2.sdf

>  <butcher #BAD>  (11) 
1

>  <butcher #GOOD>  (11) 
17

>  <butcher #protein clash>  (11) 
0

>  <butcher #solvent space>  (11) 
1

>  <butcher #pocket>  (11) 
17

>  <butcher #P1>  (11) 
11

>  <butcher #P2>  (11) 
4

>  <butcher #P1'>  (11) 
2

>  <butcher #P2'>  (11) 
0

>  <butcher #P3>  (11) 
0

>  <butcher #P4>  (11) 
0

>  <butcher #P5>  (11) 
0

>  <butcher #P6>  (11) 
0

$$$$
EN300_28298106
     RDKit          3D

 23 24  0  0  0  0  0  0  0  0999 V2000
   10.2880    8.9990   22.5730 C   0  0  0  0  0  0  0  0  0  0  0  0
    9.6260   10.2350   23.0860 C   0  0  0  0  0  0  0  0  0  0  0  0
    9.9990   11.4400   22.5790 N   0  0  0  0  0  0  0  0  0  0  0  0
    9.3950   12.5510   23.0020 C   0  0  0  0  0  0  0  0  0  0  0  0
    9.8540   13.7840   22.4140 N   0  0  0  0  0  0  0  0  0  0  0  0
   11.3150   13.9210   22.2800 C   0  0  0  0  0  0  0  0  0  0  0  0
   11.8060   14.8260   23.4200 C   0  0  0  0  0  0  0  0  0  0  0  0
   11.7850   14.5400   24.6070 O   0  0  0  0  0  0  0  0  0  0  0  0
   12.2260   15.9440   23.0030 O   0  0  0  0  0  0  0  0  0  0  0  0
    9.2540   14.6970   21.3570 C   0  0  0  0  0  0  0  0  0  0  0  0
    9.9790   15.6910   20.6050 O   0  0  0  0  0  0  0  0  0  0  0  0
    7.7730   14.6460   20.9880 C   0  0  0  0  0  0  0  0  0  0  0  0
    6.9190   15.5320   21.5270 F   0  0  0  0  0  0  0  0  0  0  0  0
    7.1910   13.5310   21.3500 F   0  0  0  0  0  0  0  0  0  0  0  0
    7.6330   14.8460   19.6670 F   0  0  0  0  0  0  0  0  0  0  0  0
    8.3230   12.4390   24.0440 C   0  0  0  0  0  0  0  0  0  0  0  0
    7.5050   13.2910   24.7010 C   0  0  0  0  0  0  0  0  0  0  0  0
    7.6500   14.7610   24.3270 C   0  0  0  0  0  0  0  0  0  0  0  0
    6.6550   12.7210   25.6100 C   0  0  0  0  0  0  0  0  0  0  0  0
    5.6160   13.4060   26.5000 C   0  0  0  0  0  0  0  0  0  0  0  0
    6.8820   11.0360   25.6580 S   0  0  0  0  0  0  0  0  0  0  0  0
    8.0850   11.1380   24.4610 C   0  0  0  0  0  0  0  0  0  0  0  0
    8.6900   10.0220   24.0170 N   0  0  0  0  0  0  0  0  0  0  0  0
  1  2  1  0
  2  3  2  0
  3  4  1  0
  4  5  1  0
  5  6  1  0
  6  7  1  0
  7  8  2  0
  7  9  1  0
  5 10  1  0
 10 11  2  0
 10 12  1  0
 12 13  1  0
 12 14  1  0
 12 15  1  0
  4 16  2  0
 16 17  1  0
 17 18  1  0
 17 19  2  0
 19 20  1  0
 19 21  1  0
 21 22  1  0
 22 23  2  0
 23  2  1  0
 22 16  1  0
A    1
 C1 
A    2
 C2 
A    3
 N1 
A    4
 C3 
A    5
 N2 
A    6
 C4 
A    7
 C5 
A    8
 O1 
A    9
 O2 
A   10
 C6 
A   11
 O3 
A   12
 C7 
A   13
 F1 
A   14
 F2 
A   15
 F3 
A   16
 C8 
A   17
 C9 
A   18
 C10
A   19
 C11
A   20
 C12
A   21
 S1 
A   22
 C13
A   23
 N3 
M  END
>  <ref_url>  (12) 
nan

>  <submitter_name>  (12) 
nan

>  <submitter_email>  (12) 
nan

>  <submitter_institution>  (12) 
nan

>  <generation_date>  (12) 
nan

>  <method>  (12) 
nan

>  <rationale>  (12) 
info info set:bb_whole;halogenbond:E85+G127; hbond:S87+S105; hydroph_interaction:V124; saltbridge:H21; 

>  <experiment>  (12) 
bb_whole

>  <cluster_label>  (12) 
1

>  <cluster_rank>  (12) 
1

>  <N_interactions>  (12) 
6

>  <∆∆G>  (12) 
-5.993787

>  <comRMSD>  (12) 
0.715491

>  <ROCS_TanimotoCombo>  (12) 
0.422

>  <ROCS_ShapeTanimoto>  (12) 
0.252

>  <ROCS_ColorTanimoto>  (12) 
0.17

>  <ref_pdb>  (12) 
A71x0310a

>  <ref_mols>  (12) 
A71x0446a,A71x1080a,A71x0812a,A71x0719a,A71x1140a,A71x0528a,A71x0310a

>  <original SMILES>  (12) 
Cc1nc(N(CC(=O)O)C(=O)C(F)(F)F)c2c(C)c(C)sc2n1

>  <origin>  (12) 
A71-ROCS-iter2.sdf

>  <butcher #BAD>  (12) 
3

>  <butcher #GOOD>  (12) 
20

>  <butcher #protein clash>  (12) 
2

>  <butcher #solvent space>  (12) 
1

>  <butcher #pocket>  (12) 
20

>  <butcher #P1>  (12) 
14

>  <butcher #P2>  (12) 
3

>  <butcher #P1'>  (12) 
3

>  <butcher #P2'>  (12) 
0

>  <butcher #P3>  (12) 
0

>  <butcher #P4>  (12) 
0

>  <butcher #P5>  (12) 
0

>  <butcher #P6>  (12) 
0

$$$$
Z2739892545
     RDKit          3D

 20 21  0  0  0  0  0  0  0  0999 V2000
   10.4900    9.2140   22.9430 C   0  0  0  0  0  0  0  0  0  0  0  0
    9.2140    9.1090   23.4110 N   0  0  0  0  0  0  0  0  0  0  0  0
    8.6600   10.1570   24.0880 C   0  0  0  0  0  0  0  0  0  0  0  0
    7.7160    9.8950   24.9730 N   0  0  0  0  0  0  0  0  0  0  0  0
    7.1110   10.8640   25.6620 C   0  0  0  0  0  0  0  0  0  0  0  0
    6.0350   10.4220   26.6570 C   0  0  0  0  0  0  0  0  0  0  0  0
    7.3850   12.2060   25.5320 C   0  0  0  0  0  0  0  0  0  0  0  0
    8.3390   12.7080   24.6650 C   0  0  0  0  0  0  0  0  0  0  0  0
    9.0540   11.6070   23.8650 C   0  0  0  0  0  0  0  0  0  0  0  0
   10.0680   12.1760   22.9460 C   0  0  0  0  0  0  0  0  0  0  0  0
   10.5450   11.4190   22.1630 O   0  0  0  0  0  0  0  0  0  0  0  0
   10.3910   13.4880   23.1230 N   0  0  0  0  0  0  0  0  0  0  0  0
   10.9210   13.9080   24.3970 C   0  0  0  0  0  0  0  0  0  0  0  0
   12.1090   14.7750   24.1420 C   0  0  1  0  0  0  0  0  0  0  0  0
   13.3860   14.5680   24.9840 C   0  0  0  0  0  0  0  0  0  0  0  0
   12.3940   14.4350   22.7070 C   0  0  2  0  0  0  0  0  0  0  0  0
   13.0250   15.5390   22.3320 C   0  0  0  0  0  0  0  0  0  0  0  0
   14.2020   15.5120   22.9200 N   0  0  0  0  0  0  0  0  0  0  0  0
   12.6060   16.4560   21.6520 O   0  0  0  0  0  0  0  0  0  0  0  0
   11.0380   14.2400   22.0850 C   0  0  0  0  0  0  0  0  0  0  0  0
  1  2  1  0
  2  3  1  0
  3  4  2  0
  4  5  1  0
  5  6  1  0
  5  7  2  0
  7  8  1  0
  8  9  2  0
  9 10  1  0
 10 11  2  0
 10 12  1  0
 12 13  1  0
 13 14  1  0
 14 15  1  1
 14 16  1  0
 16 17  1  6
 17 18  1  0
 17 19  2  0
 16 20  1  0
  9  3  1  0
 20 12  1  0
A    1
 C1 
A    2
 N1 
A    3
 C2 
A    4
 N2 
A    5
 C3 
A    6
 C4 
A    7
 C5 
A    8
 C6 
A    9
 C7 
A   10
 C8 
A   11
 O1 
A   12
 N3 
A   13
 C9 
A   14
 C10
A   15
 C11
A   16
 C12
A   17
 C13
A   18
 N4 
A   19
 O2 
A   20
 C14
M  END
>  <ref_url>  (13) 
nan

>  <submitter_name>  (13) 
nan

>  <submitter_email>  (13) 
nan

>  <submitter_institution>  (13) 
nan

>  <generation_date>  (13) 
nan

>  <method>  (13) 
nan

>  <rationale>  (13) 
info info set:screening_pocket;hbond:S87+S105+Y90+H21; hydroph_interaction:P107; 

>  <experiment>  (13) 
screening_pocket

>  <cluster_label>  (13) 
7

>  <cluster_rank>  (13) 
1

>  <N_interactions>  (13) 
6

>  <∆∆G>  (13) 
-5.476935

>  <comRMSD>  (13) 
0.811754

>  <ROCS_TanimotoCombo>  (13) 
0.681

>  <ROCS_ShapeTanimoto>  (13) 
0.261

>  <ROCS_ColorTanimoto>  (13) 
0.42

>  <ref_pdb>  (13) 
A71x0310a

>  <ref_mols>  (13) 
A71x0446a,A71x1080a,A71x0812a,A71x0719a,A71x1140a,A71x0528a,A71x0310a

>  <original SMILES>  (13) 
CNc1nc(C)ccc1C(=O)N1C[C@@H](C)[C@H](C(N)=O)C1

>  <origin>  (13) 
A71-ROCS-iter2.sdf

>  <butcher #BAD>  (13) 
2

>  <butcher #GOOD>  (13) 
18

>  <butcher #protein clash>  (13) 
2

>  <butcher #solvent space>  (13) 
0

>  <butcher #pocket>  (13) 
18

>  <butcher #P1>  (13) 
13

>  <butcher #P2>  (13) 
1

>  <butcher #P1'>  (13) 
4

>  <butcher #P2'>  (13) 
0

>  <butcher #P3>  (13) 
0

>  <butcher #P4>  (13) 
0

>  <butcher #P5>  (13) 
0

>  <butcher #P6>  (13) 
0

$$$$
Z55491204
     RDKit          3D

 27 30  0  0  0  0  0  0  0  0999 V2000
    0.9300   12.9980   22.4030 C   0  0  0  0  0  0  0  0  0  0  0  0
    2.1630   13.3390   21.6860 C   0  0  0  0  0  0  0  0  0  0  0  0
    3.1150   14.2460   22.3920 C   0  0  0  0  0  0  0  0  0  0  0  0
    4.2770   14.6000   21.7400 C   0  0  0  0  0  0  0  0  0  0  0  0
    5.1910   15.4140   22.2780 N   0  0  0  0  0  0  0  0  0  0  0  0
    6.3630   15.8140   21.4350 N   0  0  0  0  0  0  0  0  0  0  0  0
    7.4550   14.5800   21.7050 S   0  0  0  0  0  6  0  0  0  0  0  0
    6.7610   13.4690   21.2050 O   0  0  0  0  0  0  0  0  0  0  0  0
    8.7890   14.9440   21.2780 O   0  0  0  0  0  0  0  0  0  0  0  0
    7.2920   14.3570   23.4510 C   0  0  0  0  0  0  0  0  0  0  0  0
    8.1180   13.3750   23.8400 C   0  0  1  0  0  0  0  0  0  0  0  0
    8.7300   12.6330   22.8860 C   0  0  0  0  0  0  0  0  0  0  0  0
    8.9640   11.3570   23.3570 C   0  0  0  0  0  0  0  0  0  0  0  0
    9.3430   11.7750   24.5810 C   0  0  1  0  0  0  0  0  0  0  0  0
   10.1970   12.8560   24.3880 C   0  0  0  0  0  0  0  0  0  0  0  0
    9.3940   13.9120   24.4220 C   0  0  0  0  0  0  0  0  0  0  0  0
    9.6820   14.9720   24.8760 O   0  0  0  0  0  0  0  0  0  0  0  0
    7.9680   12.4080   25.0490 C   0  0  0  0  0  0  0  0  0  0  0  0
    7.7690   13.1980   26.3080 C   0  0  0  0  0  0  0  0  0  0  0  0
    6.9260   11.3150   25.2640 C   0  0  0  0  0  0  0  0  0  0  0  0
    4.5670   14.1520   20.5130 N   0  0  0  0  0  0  0  0  0  0  0  0
    3.6840   13.3490   19.9190 C   0  0  0  0  0  0  0  0  0  0  0  0
    4.1110   13.0130   18.6850 C   0  0  0  0  0  0  0  0  0  0  0  0
    3.3560   12.2060   17.8860 C   0  0  0  0  0  0  0  0  0  0  0  0
    2.1140   11.6910   18.3610 C   0  0  0  0  0  0  0  0  0  0  0  0
    1.6870   12.0410   19.6330 C   0  0  0  0  0  0  0  0  0  0  0  0
    2.4770   12.8890   20.4200 C   0  0  0  0  0  0  0  0  0  0  0  0
  1  2  1  0
  2  3  2  0
  3  4  1  0
  4  5  1  0
  5  6  1  0
  6  7  1  0
  7  8  2  0
  7  9  2  0
  7 10  1  0
 11 10  1  6
 11 12  1  0
 12 13  1  0
 14 13  1  6
 14 15  1  0
 15 16  1  0
 16 17  2  0
 14 18  1  0
 18 19  1  0
 18 20  1  0
  4 21  2  0
 21 22  1  0
 22 23  2  0
 23 24  1  0
 24 25  2  0
 25 26  1  0
 26 27  2  0
 27  2  1  0
 16 11  1  0
 27 22  1  0
 18 11  1  0
A    1
 C1 
A    2
 C2 
A    3
 C3 
A    4
 C4 
A    5
 N1 
A    6
 N2 
A    7
 S1 
A    8
 O1 
A    9
 O2 
A   10
 C5 
A   11
 C6 
A   12
 C7 
A   13
 C8 
A   14
 C9 
A   15
 C10
A   16
 C11
A   17
 O3 
A   18
 C12
A   19
 C13
A   20
 C14
A   21
 N3 
A   22
 C15
A   23
 C16
A   24
 C17
A   25
 C18
A   26
 C19
A   27
 C20
M  END
>  <ref_url>  (14) 
nan

>  <submitter_name>  (14) 
nan

>  <submitter_email>  (14) 
nan

>  <submitter_institution>  (14) 
nan

>  <generation_date>  (14) 
nan

>  <method>  (14) 
nan

>  <rationale>  (14) 
info info set:screening_whole;hbond:S87+G127+E88+E85; hydroph_interaction:P107+V84+E85+N129+L100+L131; 

>  <experiment>  (14) 
screening_whole

>  <cluster_label>  (14) 
0

>  <cluster_rank>  (14) 
1

>  <N_interactions>  (14) 
10

>  <∆∆G>  (14) 
-0.593891

>  <comRMSD>  (14) 
0.843004

>  <ROCS_TanimotoCombo>  (14) 
0.47

>  <ROCS_ShapeTanimoto>  (14) 
0.237

>  <ROCS_ColorTanimoto>  (14) 
0.233

>  <ref_pdb>  (14) 
A71x0310a

>  <ref_mols>  (14) 
A71x0446a,A71x1080a,A71x0812a,A71x0719a,A71x1140a,A71x0528a,A71x0310a

>  <original SMILES>  (14) 
Cc1cc(NNS(=O)(=O)C[C@@]23CC[C@@H](CC2=O)C3(C)C)nc2ccccc12

>  <origin>  (14) 
A71-ROCS-iter2.sdf

>  <butcher #BAD>  (14) 
2

>  <butcher #GOOD>  (14) 
25

>  <butcher #protein clash>  (14) 
2

>  <butcher #solvent space>  (14) 
0

>  <butcher #pocket>  (14) 
25

>  <butcher #P1>  (14) 
11

>  <butcher #P2>  (14) 
2

>  <butcher #P1'>  (14) 
0

>  <butcher #P2'>  (14) 
0

>  <butcher #P3>  (14) 
7

>  <butcher #P4>  (14) 
2

>  <butcher #P5>  (14) 
3

>  <butcher #P6>  (14) 
0

$$$$
Z94861526
     RDKit          3D

 25 28  0  0  0  0  0  0  0  0999 V2000
   13.8540   15.6460   21.1750 C   0  0  0  0  0  0  0  0  0  0  0  0
   12.7330   15.2060   21.9050 C   0  0  0  0  0  0  0  0  0  0  0  0
   12.8210   14.7330   23.3610 C   0  0  0  0  0  0  0  0  0  0  0  0
   11.4600   14.3930   23.9680 C   0  0  0  0  0  0  0  0  0  0  0  0
   10.3340   14.6200   22.9430 C   0  0  0  0  0  0  0  0  0  0  0  0
    9.2180   14.4580   23.4350 O   0  0  0  0  0  0  0  0  0  0  0  0
    8.9860   13.2740   23.6760 C   0  0  0  0  0  0  0  0  0  0  0  0
    9.8330   12.4160   23.1190 N   0  0  0  0  0  0  0  0  0  0  0  0
    9.5070   11.2770   23.4310 C   0  0  0  0  0  0  0  0  0  0  0  0
   10.2900   10.3120   22.8560 C   0  0  0  0  0  0  0  0  0  0  0  0
    9.7200    9.2990   23.3720 C   0  0  0  0  0  0  0  0  0  0  0  0
   10.3640    8.1840   22.9380 C   0  0  0  0  0  0  0  0  0  0  0  0
    8.6600    9.3960   24.1950 N   0  0  0  0  0  0  0  0  0  0  0  0
    8.5510   10.7460   24.1970 N   0  0  0  0  0  0  0  0  0  0  0  0
    7.6340   11.5920   24.8130 C   0  0  0  0  0  0  0  0  0  0  0  0
    6.5850   11.1850   25.6180 C   0  0  0  0  0  0  0  0  0  0  0  0
    5.7240   12.1500   26.1370 C   0  0  0  0  0  0  0  0  0  0  0  0
    5.9160   13.5040   25.8530 C   0  0  0  0  0  0  0  0  0  0  0  0
    6.9750   13.9180   25.0520 C   0  0  0  0  0  0  0  0  0  0  0  0
    7.8270   12.9550   24.5400 C   0  0  0  0  0  0  0  0  0  0  0  0
   10.5270   15.0260   21.6330 C   0  0  0  0  0  0  0  0  0  0  0  0
    9.3800   15.2100   20.7460 N   0  0  0  0  0  4  0  0  0  0  0  0
    8.2850   14.8850   21.2090 O   0  0  0  0  0  0  0  0  0  0  0  0
    9.5230   16.1340   19.9330 O   0  0  0  0  0  1  0  0  0  0  0  0
   11.6940   15.3060   21.1380 N   0  0  0  0  0  0  0  0  0  0  0  0
  1  2  1  0
  2  3  2  0
  3  4  1  0
  4  5  2  0
  5  6  1  0
  6  7  1  0
  7  8  2  0
  8  9  1  0
  9 10  2  0
 10 11  1  0
 11 12  1  0
 11 13  2  0
 13 14  1  0
 14 15  1  0
 15 16  2  0
 16 17  1  0
 17 18  2  0
 18 19  1  0
 19 20  2  0
  5 21  1  0
 21 22  1  0
 22 23  2  0
 22 24  1  0
 21 25  2  0
 25  2  1  0
 20  7  1  0
 14  9  1  0
 20 15  1  0
M  CHG  2  22   1  24  -1
A    1
 C1 
A    2
 C2 
A    3
 C3 
A    4
 C4 
A    5
 C5 
A    6
 O1 
A    7
 C6 
A    8
 N1 
A    9
 C7 
A   10
 C8 
A   11
 C9 
A   12
 C10
A   13
 N2 
A   14
 N3 
A   15
 C11
A   16
 C12
A   17
 C13
A   18
 C14
A   19
 C15
A   20
 C16
A   21
 C17
A   22
 N4 
A   23
 O2 
A   24
 O3 
A   25
 N5 
M  END
>  <ref_url>  (15) 
nan

>  <submitter_name>  (15) 
nan

>  <submitter_email>  (15) 
nan

>  <submitter_institution>  (15) 
nan

>  <generation_date>  (15) 
nan

>  <method>  (15) 
nan

>  <rationale>  (15) 
info info set:screening_whole;hbond:S87+G127; hydroph_interaction:Y89+Y90+V124+H21+D109; pistack:H21; 

>  <experiment>  (15) 
screening_whole

>  <cluster_label>  (15) 
9

>  <cluster_rank>  (15) 
1

>  <N_interactions>  (15) 
8

>  <∆∆G>  (15) 
-4.19091

>  <comRMSD>  (15) 
0.760315

>  <ROCS_TanimotoCombo>  (15) 
0.474

>  <ROCS_ShapeTanimoto>  (15) 
0.276

>  <ROCS_ColorTanimoto>  (15) 
0.198

>  <ref_pdb>  (15) 
A71x0310a

>  <ref_mols>  (15) 
A71x0446a,A71x1080a,A71x0812a,A71x0719a,A71x1140a,A71x0528a,A71x0310a

>  <original SMILES>  (15) 
Cc1ccc(Oc2nc3cc(C)nn3c3ccccc23)c([N+](=O)[O-])n1

>  <origin>  (15) 
A71-ROCS-iter2.sdf

>  <butcher #BAD>  (15) 
2

>  <butcher #GOOD>  (15) 
23

>  <butcher #protein clash>  (15) 
2

>  <butcher #solvent space>  (15) 
0

>  <butcher #pocket>  (15) 
23

>  <butcher #P1>  (15) 
15

>  <butcher #P2>  (15) 
5

>  <butcher #P1'>  (15) 
3

>  <butcher #P2'>  (15) 
0

>  <butcher #P3>  (15) 
0

>  <butcher #P4>  (15) 
0

>  <butcher #P5>  (15) 
0

>  <butcher #P6>  (15) 
0

$$$$
Z31120760
     RDKit          3D

 27 30  0  0  0  0  0  0  0  0999 V2000
    8.0640   14.5560   21.3270 C   0  0  0  0  0  0  0  0  0  0  0  0
    9.2400   15.2940   21.0730 O   0  0  0  0  0  0  0  0  0  0  0  0
   10.2750   14.8340   21.7900 C   0  0  0  0  0  0  0  0  0  0  0  0
   11.5200   14.7910   21.0670 C   0  0  0  0  0  0  0  0  0  0  0  0
   12.7110   14.3040   21.8080 C   0  0  0  0  0  0  0  0  0  0  0  0
   13.7520   14.4010   20.7970 C   0  0  0  0  0  0  0  0  0  0  0  0
   13.9500   15.8550   20.5360 C   0  0  0  0  0  0  0  0  0  0  0  0
   14.4330   13.4570   20.1560 O   0  0  0  0  0  0  0  0  0  0  0  0
   12.7270   13.8880   23.1260 C   0  0  0  0  0  0  0  0  0  0  0  0
   11.3560   13.9780   23.7930 C   0  0  0  0  0  0  0  0  0  0  0  0
   10.2060   14.4340   23.1340 C   0  0  0  0  0  0  0  0  0  0  0  0
    9.0080   14.5050   23.8180 O   0  0  0  0  0  0  0  0  0  0  0  0
    8.6320   13.2590   24.1290 C   0  0  0  0  0  0  0  0  0  0  0  0
    9.4440   12.4280   23.6150 N   0  0  0  0  0  0  0  0  0  0  0  0
    9.1430   11.2400   23.8810 C   0  0  0  0  0  0  0  0  0  0  0  0
   10.0700   10.3820   23.3030 C   0  0  0  0  0  0  0  0  0  0  0  0
    9.6700    9.0210   23.5030 C   0  0  0  0  0  0  0  0  0  0  0  0
   10.7110    8.2840   22.9160 C   0  0  0  0  0  0  0  0  0  0  0  0
   11.6840    9.0790   22.3510 C   0  0  0  0  0  0  0  0  0  0  0  0
   11.4890   10.7270   22.4990 S   0  0  0  0  0  0  0  0  0  0  0  0
    8.1360   10.6970   24.6040 N   0  0  0  0  0  0  0  0  0  0  0  0
    7.3390   11.5800   25.1080 C   0  0  0  0  0  0  0  0  0  0  0  0
    6.2840   11.1420   25.8680 C   0  0  0  0  0  0  0  0  0  0  0  0
    5.3940   12.0430   26.4260 C   0  0  0  0  0  0  0  0  0  0  0  0
    5.5650   13.4060   26.2170 C   0  0  0  0  0  0  0  0  0  0  0  0
    6.6350   13.8630   25.4540 C   0  0  0  0  0  0  0  0  0  0  0  0
    7.5280   12.9450   24.8980 C   0  0  0  0  0  0  0  0  0  0  0  0
  1  2  1  0
  2  3  1  0
  3  4  2  0
  4  5  1  0
  5  6  1  0
  6  7  1  0
  6  8  2  0
  5  9  2  0
  9 10  1  0
 10 11  2  0
 11 12  1  0
 12 13  1  0
 13 14  2  0
 14 15  1  0
 15 16  1  0
 16 17  2  0
 17 18  1  0
 18 19  2  0
 19 20  1  0
 15 21  2  0
 21 22  1  0
 22 23  2  0
 23 24  1  0
 24 25  2  0
 25 26  1  0
 26 27  2  0
 11  3  1  0
 27 13  1  0
 20 16  1  0
 27 22  1  0
A    1
 C1 
A    2
 O1 
A    3
 C2 
A    4
 C3 
A    5
 C4 
A    6
 C5 
A    7
 C6 
A    8
 O2 
A    9
 C7 
A   10
 C8 
A   11
 C9 
A   12
 O3 
A   13
 C10
A   14
 N1 
A   15
 C11
A   16
 C12
A   17
 C13
A   18
 C14
A   19
 C15
A   20
 S1 
A   21
 N2 
A   22
 C16
A   23
 C17
A   24
 C18
A   25
 C19
A   26
 C20
A   27
 C21
M  END
>  <ref_url>  (16) 
nan

>  <submitter_name>  (16) 
nan

>  <submitter_email>  (16) 
nan

>  <submitter_institution>  (16) 
nan

>  <generation_date>  (16) 
nan

>  <method>  (16) 
nan

>  <rationale>  (16) 
info info set:screening_whole;hbond:S87+G127+D39+N19; hydroph_interaction:P107+Y89+Y90+V124+H21+D109; 

>  <experiment>  (16) 
screening_whole

>  <cluster_label>  (16) 
10

>  <cluster_rank>  (16) 
1

>  <N_interactions>  (16) 
10

>  <∆∆G>  (16) 
-3.18184

>  <comRMSD>  (16) 
0.976872

>  <ROCS_TanimotoCombo>  (16) 
0.463

>  <ROCS_ShapeTanimoto>  (16) 
0.27

>  <ROCS_ColorTanimoto>  (16) 
0.193

>  <ref_pdb>  (16) 
A71x0310a

>  <ref_mols>  (16) 
A71x0446a,A71x1080a,A71x0812a,A71x0719a,A71x1140a,A71x0528a,A71x0310a

>  <original SMILES>  (16) 
COc1cc(C(C)=O)ccc1Oc1nc(-c2cccs2)nc2ccccc12

>  <origin>  (16) 
A71-ROCS-iter2.sdf

>  <butcher #BAD>  (16) 
8

>  <butcher #GOOD>  (16) 
19

>  <butcher #protein clash>  (16) 
6

>  <butcher #solvent space>  (16) 
2

>  <butcher #pocket>  (16) 
19

>  <butcher #P1>  (16) 
13

>  <butcher #P2>  (16) 
4

>  <butcher #P1'>  (16) 
2

>  <butcher #P2'>  (16) 
0

>  <butcher #P3>  (16) 
0

>  <butcher #P4>  (16) 
0

>  <butcher #P5>  (16) 
0

>  <butcher #P6>  (16) 
0

$$$$
Z1766224104
     RDKit          3D

 18 19  0  0  0  0  0  0  0  0999 V2000
    7.0040   14.9280   21.9940 C   0  0  0  0  0  0  0  0  0  0  0  0
    8.2580   14.8520   21.1260 C   0  0  0  0  0  0  0  0  0  0  0  0
    9.2920   14.1000   21.7410 O   0  0  0  0  0  0  0  0  0  0  0  0
   10.5700   14.5140   21.7820 C   0  0  0  0  0  0  0  0  0  0  0  0
   11.3150   15.0880   20.5740 C   0  0  0  0  0  0  0  0  0  0  0  0
   12.7900   15.4950   20.7870 C   0  0  0  0  0  0  0  0  0  0  0  0
   13.4070   15.3120   22.1570 C   0  0  0  0  0  0  0  0  0  0  0  0
   12.6920   14.8010   23.1900 C   0  0  0  0  0  0  0  0  0  0  0  0
   11.2610   14.3730   23.0950 C   0  0  0  0  0  0  0  0  0  0  0  0
   10.4570   13.8140   24.1890 C   0  0  0  0  0  0  0  0  0  0  0  0
   10.3000   14.6330   25.3630 O   0  0  0  0  0  0  0  0  0  0  0  0
    9.9300   12.5880   23.9570 N   0  0  0  0  0  0  0  0  0  0  0  0
    8.6290   12.4180   24.2240 C   0  0  0  0  0  0  0  0  0  0  0  0
    8.2270   10.9960   24.6390 C   0  0  0  0  0  0  0  0  0  0  0  0
    8.8110   10.0450   23.6940 N   0  0  0  0  0  0  0  0  0  0  0  0
    9.8960   10.3690   22.9820 C   0  0  2  0  0  0  0  0  0  0  0  0
   10.8960    9.4460   23.0210 C   0  0  0  0  0  0  0  0  0  0  0  0
   10.4020   11.8390   23.0270 C   0  0  0  0  0  0  0  0  0  0  0  0
  1  2  1  0
  2  3  1  0
  3  4  1  0
  4  5  2  0
  5  6  1  0
  6  7  2  0
  7  8  1  0
  8  9  2  0
  9 10  1  0
 10 11  2  0
 10 12  1  0
 12 13  1  0
 13 14  1  0
 14 15  1  0
 15 16  1  0
 16 17  1  1
 16 18  1  0
  9  4  1  0
 18 12  1  0
A    1
 C1 
A    2
 C2 
A    3
 O1 
A    4
 C3 
A    5
 C4 
A    6
 C5 
A    7
 C6 
A    8
 C7 
A    9
 C8 
A   10
 C9 
A   11
 O2 
A   12
 N1 
A   13
 C10
A   14
 C11
A   15
 N2 
A   16
 C12
A   17
 C13
A   18
 C14
M  END
>  <ref_url>  (17) 
nan

>  <submitter_name>  (17) 
nan

>  <submitter_email>  (17) 
nan

>  <submitter_institution>  (17) 
nan

>  <generation_date>  (17) 
nan

>  <method>  (17) 
nan

>  <rationale>  (17) 
info info set:3d;hbond:S87+S105+E88; hydroph_interaction:Y89+Y90+V124+V84; 

>  <experiment>  (17) 
3d

>  <cluster_label>  (17) 
8

>  <cluster_rank>  (17) 
1

>  <N_interactions>  (17) 
7

>  <∆∆G>  (17) 
-5.799255

>  <comRMSD>  (17) 
0.7621

>  <ROCS_TanimotoCombo>  (17) 
0.345

>  <ROCS_ShapeTanimoto>  (17) 
0.208

>  <ROCS_ColorTanimoto>  (17) 
0.136

>  <ref_pdb>  (17) 
A71x0310a

>  <ref_mols>  (17) 
A71x0446a,A71x1080a,A71x0812a,A71x0719a,A71x1140a,A71x0528a,A71x0310a

>  <original SMILES>  (17) 
CCOc1ccccc1C(=O)N1CCN[C@H](C)C1

>  <origin>  (17) 
A71-ROCS-iter2.sdf

>  <butcher #BAD>  (17) 
2

>  <butcher #GOOD>  (17) 
16

>  <butcher #protein clash>  (17) 
1

>  <butcher #solvent space>  (17) 
1

>  <butcher #pocket>  (17) 
16

>  <butcher #P1>  (17) 
11

>  <butcher #P2>  (17) 
3

>  <butcher #P1'>  (17) 
2

>  <butcher #P2'>  (17) 
0

>  <butcher #P3>  (17) 
0

>  <butcher #P4>  (17) 
0

>  <butcher #P5>  (17) 
0

>  <butcher #P6>  (17) 
0

$$$$
Z1716137365
     RDKit          3D

 23 25  0  0  0  0  0  0  0  0999 V2000
   10.2510    8.3190   22.9650 C   0  0  0  0  0  0  0  0  0  0  0  0
   10.2670    9.6830   22.5990 C   0  0  0  0  0  0  0  0  0  0  0  0
   11.6860   10.1210   22.6230 C   0  0  0  0  0  0  0  0  0  0  0  0
    9.4570   10.4010   23.3950 N   0  0  0  0  0  0  0  0  0  0  0  0
    8.5770    9.7890   24.3430 N   0  0  0  0  0  0  0  0  0  0  0  0
    7.9270   10.9550   24.9330 C   0  0  0  0  0  0  0  0  0  0  0  0
    8.4790   12.2030   24.2860 C   0  0  0  0  0  0  0  0  0  0  0  0
    9.4130   11.8160   23.3470 C   0  0  0  0  0  0  0  0  0  0  0  0
   10.1840   12.5280   22.4940 N   0  0  0  0  0  0  0  0  0  0  0  0
   10.1730   13.8060   22.4260 C   0  0  0  0  0  0  0  0  0  0  0  0
    9.2490   14.5130   22.7600 O   0  0  0  0  0  0  0  0  0  0  0  0
   11.4490   14.3780   21.8620 C   0  0  0  0  0  0  0  0  0  0  0  0
   12.5280   14.0280   22.7330 N   0  0  0  0  0  0  0  0  0  0  0  0
   13.3360   12.8900   22.3670 C   0  0  0  0  0  0  0  0  0  0  0  0
   14.5210   13.4030   21.6140 C   0  0  0  0  0  0  0  0  0  0  0  0
   15.6650   13.5570   22.6020 C   0  0  0  0  0  0  0  0  0  0  0  0
   15.6280   14.6780   23.4180 C   0  0  0  0  0  0  0  0  0  0  0  0
   14.3120   14.8580   24.1440 C   0  0  0  0  0  0  0  0  0  0  0  0
   13.1270   15.1300   23.2330 C   0  0  0  0  0  0  0  0  0  0  0  0
   12.6810   16.2320   22.9150 O   0  0  0  0  0  0  0  0  0  0  0  0
    7.8120   13.3640   24.8940 C   0  0  0  0  0  0  0  0  0  0  0  0
    7.0830   12.7460   26.1550 C   0  0  0  0  0  0  0  0  0  0  0  0
    6.9100   11.2020   25.9530 C   0  0  0  0  0  0  0  0  0  0  0  0
  1  2  1  0
  2  3  1  0
  2  4  1  0
  4  5  1  0
  5  6  2  0
  6  7  1  0
  7  8  2  0
  8  9  1  0
  9 10  1  0
 10 11  2  0
 10 12  1  0
 12 13  1  0
 13 14  1  0
 14 15  1  0
 15 16  1  0
 16 17  1  0
 17 18  1  0
 18 19  1  0
 19 20  2  0
  7 21  1  0
 21 22  1  0
 22 23  1  0
  8  4  1  0
 19 13  1  0
 23  6  1  0
A    1
 C1 
A    2
 C2 
A    3
 C3 
A    4
 N1 
A    5
 N2 
A    6
 C4 
A    7
 C5 
A    8
 C6 
A    9
 N3 
A   10
 C7 
A   11
 O1 
A   12
 C8 
A   13
 N4 
A   14
 C9 
A   15
 C10
A   16
 C11
A   17
 C12
A   18
 C13
A   19
 C14
A   20
 O2 
A   21
 C15
A   22
 C16
A   23
 C17
M  END
>  <ref_url>  (18) 
nan

>  <submitter_name>  (18) 
nan

>  <submitter_email>  (18) 
nan

>  <submitter_institution>  (18) 
nan

>  <generation_date>  (18) 
nan

>  <method>  (18) 
nan

>  <rationale>  (18) 
info info set:screening_pocket;hbond:S87+S125+G127+Y90; hydroph_interaction:P107+Y89+V124+H21+L22+D109; 

>  <experiment>  (18) 
screening_pocket

>  <cluster_label>  (18) 
16

>  <cluster_rank>  (18) 
1

>  <N_interactions>  (18) 
10

>  <∆∆G>  (18) 
-9.751463

>  <comRMSD>  (18) 
0.55777

>  <ROCS_TanimotoCombo>  (18) 
0.638

>  <ROCS_ShapeTanimoto>  (18) 
0.27

>  <ROCS_ColorTanimoto>  (18) 
0.367

>  <ref_pdb>  (18) 
A71x0310a

>  <ref_mols>  (18) 
A71x0446a,A71x1080a,A71x0812a,A71x0719a,A71x1140a,A71x0528a,A71x0310a

>  <original SMILES>  (18) 
CC(C)n1nc2c(c1NC(=O)CN1CCCCCC1=O)CCC2

>  <origin>  (18) 
A71-ROCS-iter2.sdf

>  <butcher #BAD>  (18) 
7

>  <butcher #GOOD>  (18) 
16

>  <butcher #protein clash>  (18) 
7

>  <butcher #solvent space>  (18) 
0

>  <butcher #pocket>  (18) 
16

>  <butcher #P1>  (18) 
13

>  <butcher #P2>  (18) 
0

>  <butcher #P1'>  (18) 
3

>  <butcher #P2'>  (18) 
0

>  <butcher #P3>  (18) 
0

>  <butcher #P4>  (18) 
0

>  <butcher #P5>  (18) 
0

>  <butcher #P6>  (18) 
0

$$$$
EN300_7424825
     RDKit          3D

 17 18  0  0  0  0  0  0  0  0999 V2000
    0.3600   12.4370   16.7340 C   0  0  0  0  0  0  0  0  0  0  0  0
    0.7570   13.1270   17.6460 O   0  0  0  0  0  0  0  0  0  0  0  0
    1.8350   12.6270   18.3090 C   0  0  0  0  0  0  0  0  0  0  0  0
    2.2090   11.2480   18.1800 C   0  0  0  0  0  0  0  0  0  0  0  0
    3.3220   10.8470   18.8960 C   0  0  0  0  0  0  0  0  0  0  0  0
    4.0150   11.9150   19.7350 C   0  0  0  0  0  0  0  0  0  0  0  0
    3.5850   13.2110   19.8030 C   0  0  0  0  0  0  0  0  0  0  0  0
    4.5180   13.9850   20.7570 C   0  0  0  0  0  0  0  0  0  0  0  0
    4.1220   14.2980   22.0240 C   0  0  0  0  0  0  0  0  0  0  0  0
    5.3860   14.8800   22.6470 C   0  0  0  0  0  0  0  0  0  0  0  0
    5.8350   15.4210   24.2280 S   0  0  0  0  0  6  0  0  0  0  0  0
    4.7170   16.4970   24.8400 N   0  0  0  0  0  0  0  0  0  0  0  0
    7.0560   16.0820   24.1350 O   0  0  0  0  0  0  0  0  0  0  0  0
    5.8070   14.2170   25.0200 O   0  0  0  0  0  0  0  0  0  0  0  0
    6.2640   14.8810   21.6100 N   0  0  0  0  0  0  0  0  0  0  0  0
    5.7650   14.3530   20.4840 N   0  0  0  0  0  0  0  0  0  0  0  0
    2.4850   13.5770   19.0880 C   0  0  0  0  0  0  0  0  0  0  0  0
  1  2  1  0
  2  3  1  0
  3  4  2  0
  4  5  1  0
  5  6  2  0
  6  7  1  0
  7  8  1  0
  8  9  1  0
  9 10  2  0
 10 11  1  0
 11 12  1  0
 11 13  2  0
 11 14  2  0
 10 15  1  0
 15 16  1  0
  7 17  2  0
 17  3  1  0
 16  8  2  0
A    1
 C1 
A    2
 O1 
A    3
 C2 
A    4
 C3 
A    5
 C4 
A    6
 C5 
A    7
 C6 
A    8
 C7 
A    9
 C8 
A   10
 C9 
A   11
 S1 
A   12
 N1 
A   13
 O2 
A   14
 O3 
A   15
 N2 
A   16
 N3 
A   17
 C10
M  END
>  <ref_url>  (19) 
nan

>  <submitter_name>  (19) 
nan

>  <submitter_email>  (19) 
nan

>  <submitter_institution>  (19) 
nan

>  <generation_date>  (19) 
nan

>  <method>  (19) 
nan

>  <rationale>  (19) 
info info set:sulfonimide_whole;hbond:G127+A86+E85; hydroph_interaction:E85+L100+L131; 

>  <experiment>  (19) 
sulfonimide_whole

>  <cluster_label>  (19) 
17

>  <cluster_rank>  (19) 
1

>  <N_interactions>  (19) 
8

>  <∆∆G>  (19) 
-6.084304

>  <comRMSD>  (19) 
0.968328

>  <ROCS_TanimotoCombo>  (19) 
0.319

>  <ROCS_ShapeTanimoto>  (19) 
0.182

>  <ROCS_ColorTanimoto>  (19) 
0.137

>  <ref_pdb>  (19) 
A71x0310a

>  <ref_mols>  (19) 
A71x0446a,A71x1080a,A71x0812a,A71x0719a,A71x1140a,A71x0528a,A71x0310a

>  <original SMILES>  (19) 
COc1cccc(-c2cc(S(N)(=O)=O)[nH]n2)c1

>  <origin>  (19) 
A71-ROCS-iter2.sdf

>  <butcher #BAD>  (19) 
6

>  <butcher #GOOD>  (19) 
11

>  <butcher #protein clash>  (19) 
3

>  <butcher #solvent space>  (19) 
3

>  <butcher #pocket>  (19) 
11

>  <butcher #P1>  (19) 
0

>  <butcher #P2>  (19) 
0

>  <butcher #P1'>  (19) 
0

>  <butcher #P2'>  (19) 
0

>  <butcher #P3>  (19) 
7

>  <butcher #P4>  (19) 
0

>  <butcher #P5>  (19) 
2

>  <butcher #P6>  (19) 
2

$$$$
EN300_365277
     RDKit          3D

 17 19  0  0  0  0  0  0  0  0999 V2000
    6.2320   15.5760   22.6020 N   0  0  0  0  0  0  0  0  0  0  0  0
    7.4070   14.4220   22.2420 S   0  0  0  0  0  6  0  0  0  0  0  0
    6.6610   13.3950   21.6250 O   0  0  0  0  0  0  0  0  0  0  0  0
    8.4750   15.0120   21.4650 O   0  0  0  0  0  0  0  0  0  0  0  0
    8.0360   13.9130   23.8590 C   0  0  0  0  0  0  0  0  0  0  0  0
    7.1070   13.1220   24.7320 C   0  0  0  0  0  0  0  0  0  0  0  0
    5.9330   13.7350   25.3940 C   0  0  0  0  0  0  0  0  0  0  0  0
    5.1890   12.8490   26.1850 C   0  0  0  0  0  0  0  0  0  0  0  0
    5.5720   11.5030   26.3050 C   0  0  0  0  0  0  0  0  0  0  0  0
    6.6910   10.9610   25.6550 C   0  0  0  0  0  0  0  0  0  0  0  0
    7.4520   11.7870   24.8640 C   0  0  0  0  0  0  0  0  0  0  0  0
    8.6220   11.5670   24.0910 C   0  0  0  0  0  0  0  0  0  0  0  0
    9.3390   10.4210   23.8560 C   0  0  0  0  0  0  0  0  0  0  0  0
   10.4610   10.5580   23.0730 C   0  0  0  0  0  0  0  0  0  0  0  0
   10.8020   11.8400   22.5830 C   0  0  0  0  0  0  0  0  0  0  0  0
   10.0890   12.9500   22.7980 C   0  0  0  0  0  0  0  0  0  0  0  0
    8.9980   12.8160   23.5370 C   0  0  0  0  0  0  0  0  0  0  0  0
  1  2  1  0
  2  3  2  0
  2  4  2  0
  2  5  1  0
  5  6  1  0
  6  7  2  0
  7  8  1  0
  8  9  2  0
  9 10  1  0
 10 11  2  0
 11 12  1  0
 12 13  2  0
 13 14  1  0
 14 15  2  0
 15 16  1  0
 16 17  2  0
 17  5  1  0
 11  6  1  0
 17 12  1  0
A    1
 N1 
A    2
 S1 
A    3
 O1 
A    4
 O2 
A    5
 C1 
A    6
 C2 
A    7
 C3 
A    8
 C4 
A    9
 C5 
A   10
 C6 
A   11
 C7 
A   12
 C8 
A   13
 C9 
A   14
 C10
A   15
 C11
A   16
 C12
A   17
 C13
M  END
>  <ref_url>  (20) 
nan

>  <submitter_name>  (20) 
nan

>  <submitter_email>  (20) 
nan

>  <submitter_institution>  (20) 
nan

>  <generation_date>  (20) 
nan

>  <method>  (20) 
nan

>  <rationale>  (20) 
info info set:sulfonimide_whole;hbond:S87+G127+A86; 

>  <experiment>  (20) 
sulfonimide_whole

>  <cluster_label>  (20) 
5

>  <cluster_rank>  (20) 
1

>  <N_interactions>  (20) 
3

>  <∆∆G>  (20) 
-6.680949

>  <comRMSD>  (20) 
0.62371

>  <ROCS_TanimotoCombo>  (20) 
0.384

>  <ROCS_ShapeTanimoto>  (20) 
0.233

>  <ROCS_ColorTanimoto>  (20) 
0.15

>  <ref_pdb>  (20) 
A71x0310a

>  <ref_mols>  (20) 
A71x0446a,A71x1080a,A71x0812a,A71x0719a,A71x1140a,A71x0528a,A71x0310a

>  <original SMILES>  (20) 
NS(=O)(=O)C1c2ccccc2-c2ccccc21

>  <origin>  (20) 
A71-ROCS-iter2.sdf

>  <butcher #BAD>  (20) 
1

>  <butcher #GOOD>  (20) 
16

>  <butcher #protein clash>  (20) 
0

>  <butcher #solvent space>  (20) 
1

>  <butcher #pocket>  (20) 
16

>  <butcher #P1>  (20) 
13

>  <butcher #P2>  (20) 
1

>  <butcher #P1'>  (20) 
0

>  <butcher #P2'>  (20) 
0

>  <butcher #P3>  (20) 
2

>  <butcher #P4>  (20) 
0

>  <butcher #P5>  (20) 
0

>  <butcher #P6>  (20) 
0

$$$$
Z1764946926
     RDKit          3D

 17 18  0  0  0  0  0  0  0  0999 V2000
    5.9470   11.0060   27.0640 C   0  0  0  0  0  0  0  0  0  0  0  0
    6.5030   10.2790   25.9680 N   0  0  0  0  0  0  0  0  0  0  0  0
    7.4890   10.6710   25.1280 C   0  0  0  0  0  0  0  0  0  0  0  0
    7.5070   12.1780   24.9400 C   0  0  0  0  0  0  0  0  0  0  0  0
    8.5930   12.6850   24.0030 C   0  0  0  0  0  0  0  0  0  0  0  0
    9.5170   11.6350   23.3770 C   0  0  0  0  0  0  0  0  0  0  0  0
   10.5160   11.9270   22.5550 N   0  0  0  0  0  0  0  0  0  0  0  0
   11.1150   13.0690   22.7530 C   0  0  0  0  0  0  0  0  0  0  0  0
   12.0970   13.7730   21.8240 C   0  0  0  0  0  0  0  0  0  0  0  0
   12.6560   15.0610   22.2440 C   0  0  0  0  0  0  0  0  0  0  0  0
   13.5800   15.6980   21.3000 C   0  0  0  0  0  0  0  0  0  0  0  0
   12.3740   15.6420   23.3820 N   0  0  0  0  0  0  0  0  0  0  0  0
   11.4950   14.9710   24.1880 C   0  0  0  0  0  0  0  0  0  0  0  0
   11.1810   15.5200   25.3900 C   0  0  0  0  0  0  0  0  0  0  0  0
   10.8920   13.8300   23.9580 N   0  0  0  0  0  0  0  0  0  0  0  0
    9.2930   10.2990   23.7080 C   0  0  0  0  0  0  0  0  0  0  0  0
    8.3400    9.8050   24.5320 N   0  0  0  0  0  0  0  0  0  0  0  0
  1  2  1  0
  2  3  1  0
  3  4  2  0
  4  5  1  0
  5  6  2  0
  6  7  1  0
  7  8  1  0
  8  9  2  0
  9 10  1  0
 10 11  1  0
 10 12  2  0
 12 13  1  0
 13 14  1  0
 13 15  2  0
  6 16  1  0
 16 17  2  0
 17  3  1  0
 15  8  1  0
A    1
 C1 
A    2
 N1 
A    3
 C2 
A    4
 C3 
A    5
 C4 
A    6
 C5 
A    7
 N2 
A    8
 C6 
A    9
 C7 
A   10
 C8 
A   11
 C9 
A   12
 N3 
A   13
 C10
A   14
 C11
A   15
 N4 
A   16
 C12
A   17
 N5 
M  END
>  <ref_url>  (21) 
nan

>  <submitter_name>  (21) 
nan

>  <submitter_email>  (21) 
nan

>  <submitter_institution>  (21) 
nan

>  <generation_date>  (21) 
nan

>  <method>  (21) 
nan

>  <rationale>  (21) 
info info set:screening_pocket;hbond:S105+S125; hydroph_interaction:P107+Y89+Y90+E88+H21; 

>  <experiment>  (21) 
screening_pocket

>  <cluster_label>  (21) 
12

>  <cluster_rank>  (21) 
1

>  <N_interactions>  (21) 
7

>  <∆∆G>  (21) 
-6.437505

>  <comRMSD>  (21) 
0.89417

>  <ROCS_TanimotoCombo>  (21) 
0.663

>  <ROCS_ShapeTanimoto>  (21) 
0.227

>  <ROCS_ColorTanimoto>  (21) 
0.437

>  <ref_pdb>  (21) 
A71x0310a

>  <ref_mols>  (21) 
A71x0446a,A71x1080a,A71x0812a,A71x0719a,A71x1140a,A71x0528a,A71x0310a

>  <original SMILES>  (21) 
CNc1ccc(Nc2cc(C)nc(C)n2)cn1

>  <origin>  (21) 
A71-ROCS-iter2.sdf

>  <butcher #BAD>  (21) 
2

>  <butcher #GOOD>  (21) 
15

>  <butcher #protein clash>  (21) 
0

>  <butcher #solvent space>  (21) 
2

>  <butcher #pocket>  (21) 
15

>  <butcher #P1>  (21) 
11

>  <butcher #P2>  (21) 
0

>  <butcher #P1'>  (21) 
4

>  <butcher #P2'>  (21) 
0

>  <butcher #P3>  (21) 
0

>  <butcher #P4>  (21) 
0

>  <butcher #P5>  (21) 
0

>  <butcher #P6>  (21) 
0

$$$$
EN300_1723691
     RDKit          3D

 17 18  0  0  0  0  0  0  0  0999 V2000
    3.4810   11.1660   19.8120 N   0  0  0  0  0  0  0  0  0  0  0  0
    3.7080   12.7370   19.2070 S   0  0  0  0  0  6  0  0  0  0  0  0
    2.3650   13.1770   18.9270 O   0  0  0  0  0  0  0  0  0  0  0  0
    4.6340   12.5010   18.1380 O   0  0  0  0  0  0  0  0  0  0  0  0
    4.4050   13.5630   20.6880 C   0  0  0  0  0  0  0  0  0  0  0  0
    3.3100   13.9350   21.6130 C   0  0  0  0  0  0  0  0  0  0  0  0
    3.6530   14.5240   22.8310 C   0  0  0  0  0  0  0  0  0  0  0  0
    5.0040   14.7650   23.1980 C   0  0  0  0  0  0  0  0  0  0  0  0
    6.0450   14.4240   22.3430 C   0  0  0  0  0  0  0  0  0  0  0  0
    7.4190   14.5580   22.6310 O   0  0  0  0  0  0  0  0  0  0  0  0
    8.0050   13.3610   23.1280 C   0  0  0  0  0  0  0  0  0  0  0  0
    9.2630   12.9060   22.5940 C   0  0  0  0  0  0  0  0  0  0  0  0
    9.7870   11.7210   23.0550 C   0  0  0  0  0  0  0  0  0  0  0  0
    9.1170   10.8510   24.1270 C   0  0  0  0  0  0  0  0  0  0  0  0
    7.8900   11.2090   24.7540 C   0  0  0  0  0  0  0  0  0  0  0  0
    7.3960   12.5930   24.1170 C   0  0  0  0  0  0  0  0  0  0  0  0
    5.7590   13.8690   21.1180 C   0  0  0  0  0  0  0  0  0  0  0  0
  1  2  1  0
  2  3  2  0
  2  4  2  0
  2  5  1  0
  5  6  2  0
  6  7  1  0
  7  8  2  0
  8  9  1  0
  9 10  1  0
 10 11  1  0
 11 12  2  0
 12 13  1  0
 13 14  2  0
 14 15  1  0
 15 16  2  0
  9 17  2  0
 17  5  1  0
 16 11  1  0
A    1
 N1 
A    2
 S1 
A    3
 O1 
A    4
 O2 
A    5
 C1 
A    6
 C2 
A    7
 C3 
A    8
 C4 
A    9
 C5 
A   10
 O3 
A   11
 C6 
A   12
 C7 
A   13
 C8 
A   14
 C9 
A   15
 C10
A   16
 C11
A   17
 C12
M  END
>  <ref_url>  (22) 
nan

>  <submitter_name>  (22) 
nan

>  <submitter_email>  (22) 
nan

>  <submitter_institution>  (22) 
nan

>  <generation_date>  (22) 
nan

>  <method>  (22) 
nan

>  <rationale>  (22) 
info info set:sulfonimide_whole;hbond:T126+G128; hydroph_interaction:E85; 

>  <experiment>  (22) 
sulfonimide_whole

>  <cluster_label>  (22) 
15

>  <cluster_rank>  (22) 
2

>  <N_interactions>  (22) 
4

>  <∆∆G>  (22) 
-4.778199

>  <comRMSD>  (22) 
0.978353

>  <ROCS_TanimotoCombo>  (22) 
0.326

>  <ROCS_ShapeTanimoto>  (22) 
0.206

>  <ROCS_ColorTanimoto>  (22) 
0.12

>  <ref_pdb>  (22) 
A71x0310a

>  <ref_mols>  (22) 
A71x0446a,A71x1080a,A71x0812a,A71x0719a,A71x1140a,A71x0528a,A71x0310a

>  <original SMILES>  (22) 
NS(=O)(=O)c1cccc(Oc2ccccc2)c1

>  <origin>  (22) 
A71-ROCS-iter2.sdf

>  <butcher #BAD>  (22) 
2

>  <butcher #GOOD>  (22) 
15

>  <butcher #protein clash>  (22) 
1

>  <butcher #solvent space>  (22) 
1

>  <butcher #pocket>  (22) 
15

>  <butcher #P1>  (22) 
7

>  <butcher #P2>  (22) 
0

>  <butcher #P1'>  (22) 
0

>  <butcher #P2'>  (22) 
0

>  <butcher #P3>  (22) 
6

>  <butcher #P4>  (22) 
1

>  <butcher #P5>  (22) 
1

>  <butcher #P6>  (22) 
0

$$$$
Z2057224744
     RDKit          3D

 19 20  0  0  0  0  0  0  0  0999 V2000
   10.6240    9.3690   22.3520 C   0  0  0  0  0  0  0  0  0  0  0  0
    9.4140    9.0810   23.1400 C   0  0  0  0  0  0  0  0  0  0  0  0
    8.9260   10.3370   23.8090 C   0  0  0  0  0  0  0  0  0  0  0  0
    7.9420   10.1270   24.8670 N   0  0  0  0  0  0  0  0  0  0  0  0
    7.6550   11.1680   25.2760 N   0  0  0  0  0  0  0  0  0  0  0  0
    6.7420   11.2270   26.2660 C   0  0  0  0  0  0  0  0  0  0  0  0
    8.2740   12.1900   24.7000 C   0  0  0  0  0  0  0  0  0  0  0  0
    9.2110   11.6700   23.6270 C   0  0  0  0  0  0  0  0  0  0  0  0
   10.0130   12.2830   22.8100 N   0  0  0  0  0  0  0  0  0  0  0  0
   10.5090   13.5110   23.0700 C   0  0  0  0  0  0  0  0  0  0  0  0
   10.0440   14.3880   24.0750 O   0  0  0  0  0  0  0  0  0  0  0  0
   11.6390   13.8190   22.1590 C   0  0  2  0  0  0  0  0  0  0  0  0
   12.9080   14.2070   22.8520 C   0  0  0  0  0  0  0  0  0  0  0  0
   13.3010   15.4100   22.1060 C   0  0  2  0  0  0  0  0  0  0  0  0
   12.5050   16.4120   22.6520 O   0  0  0  0  0  0  0  0  0  0  0  0
   12.0770   17.2260   21.6020 C   0  0  0  0  0  0  0  0  0  0  0  0
   12.7730   15.0940   20.7390 C   0  0  0  0  0  0  0  0  0  0  0  0
   11.3920   14.9170   21.1540 N   0  0  0  0  0  0  0  0  0  0  0  0
   10.5000   14.6790   20.0170 C   0  0  0  0  0  0  0  0  0  0  0  0
  1  2  1  0
  2  3  1  0
  3  4  2  0
  4  5  1  0
  5  6  1  0
  5  7  1  0
  7  8  2  0
  8  9  1  0
  9 10  1  0
 10 11  2  0
 12 10  1  1
 12 13  1  0
 13 14  1  0
 14 15  1  1
 15 16  1  0
 14 17  1  0
 17 18  1  0
 18 19  1  0
  8  3  1  0
 18 12  1  0
A    1
 C1 
A    2
 C2 
A    3
 C3 
A    4
 N1 
A    5
 N2 
A    6
 C4 
A    7
 C5 
A    8
 C6 
A    9
 N3 
A   10
 C7 
A   11
 O1 
A   12
 C8 
A   13
 C9 
A   14
 C10
A   15
 O2 
A   16
 C11
A   17
 C12
A   18
 N4 
A   19
 C13
M  END
>  <ref_url>  (23) 
nan

>  <submitter_name>  (23) 
nan

>  <submitter_email>  (23) 
nan

>  <submitter_institution>  (23) 
nan

>  <generation_date>  (23) 
nan

>  <method>  (23) 
nan

>  <rationale>  (23) 
info info set:screening_pocket;hbond:S87+S125+G127; hydroph_interaction:V124; saltbridge:D39; 

>  <experiment>  (23) 
screening_pocket

>  <cluster_label>  (23) 
19

>  <cluster_rank>  (23) 
2

>  <N_interactions>  (23) 
5

>  <∆∆G>  (23) 
-7.441495

>  <comRMSD>  (23) 
0.607788

>  <ROCS_TanimotoCombo>  (23) 
0.625

>  <ROCS_ShapeTanimoto>  (23) 
0.234

>  <ROCS_ColorTanimoto>  (23) 
0.392

>  <ref_pdb>  (23) 
A71x0310a

>  <ref_mols>  (23) 
A71x0446a,A71x1080a,A71x0812a,A71x0719a,A71x1140a,A71x0528a,A71x0310a

>  <original SMILES>  (23) 
CCc1nn(C)cc1NC(=O)[C@@H]1C[C@H](OC)CN1C

>  <origin>  (23) 
A71-ROCS-iter2.sdf

>  <butcher #BAD>  (23) 
3

>  <butcher #GOOD>  (23) 
16

>  <butcher #protein clash>  (23) 
2

>  <butcher #solvent space>  (23) 
1

>  <butcher #pocket>  (23) 
16

>  <butcher #P1>  (23) 
11

>  <butcher #P2>  (23) 
2

>  <butcher #P1'>  (23) 
3

>  <butcher #P2'>  (23) 
0

>  <butcher #P3>  (23) 
0

>  <butcher #P4>  (23) 
0

>  <butcher #P5>  (23) 
0

>  <butcher #P6>  (23) 
0

$$$$
EN300_1618086
     RDKit          3D

 16 16  0  0  0  0  0  0  0  0999 V2000
    6.2140    9.7380   28.3830 C   0  0  0  0  0  0  0  0  0  0  0  0
    5.7150   10.0440   27.1140 C   0  0  0  0  0  0  0  0  0  0  0  0
    6.8510   10.2200   26.2340 O   0  0  0  0  0  0  0  0  0  0  0  0
    6.7330   11.3640   25.5550 C   0  0  0  0  0  0  0  0  0  0  0  0
    5.7840   12.1190   25.6770 O   0  0  0  0  0  0  0  0  0  0  0  0
    7.7940   11.6040   24.7050 C   0  0  0  0  0  0  0  0  0  0  0  0
    8.5280   10.6630   24.1040 N   0  0  0  0  0  0  0  0  0  0  0  0
    9.5110   11.1650   23.3150 C   0  0  0  0  0  0  0  0  0  0  0  0
   10.3260   10.2790   22.6450 C   0  0  0  0  0  0  0  0  0  0  0  0
    9.4040   12.5620   23.4210 C   0  0  0  0  0  0  0  0  0  0  0  0
   10.2840   13.8550   22.7420 S   0  0  0  0  0  6  0  0  0  0  0  0
   11.6730   13.2920   22.0330 N   0  0  0  0  0  0  0  0  0  0  0  0
   10.7990   14.5940   23.8650 O   0  0  0  0  0  0  0  0  0  0  0  0
    9.4730   14.4520   21.7010 O   0  0  0  0  0  0  0  0  0  0  0  0
    8.3330   12.7970   24.2820 C   0  0  0  0  0  0  0  0  0  0  0  0
    7.9100   14.1930   24.6310 C   0  0  0  0  0  0  0  0  0  0  0  0
  1  2  1  0
  2  3  1  0
  3  4  1  0
  4  5  2  0
  4  6  1  0
  6  7  1  0
  7  8  1  0
  8  9  1  0
  8 10  2  0
 10 11  1  0
 11 12  1  0
 11 13  2  0
 11 14  2  0
 10 15  1  0
 15 16  1  0
 15  6  2  0
A    1
 C1 
A    2
 C2 
A    3
 O1 
A    4
 C3 
A    5
 O2 
A    6
 C4 
A    7
 N1 
A    8
 C5 
A    9
 C6 
A   10
 C7 
A   11
 S1 
A   12
 N2 
A   13
 O3 
A   14
 O4 
A   15
 C8 
A   16
 C9 
M  END
>  <ref_url>  (24) 
nan

>  <submitter_name>  (24) 
nan

>  <submitter_email>  (24) 
nan

>  <submitter_institution>  (24) 
nan

>  <generation_date>  (24) 
nan

>  <method>  (24) 
nan

>  <rationale>  (24) 
info info set:sulfonimide_whole;hbond:S87+S125; hydroph_interaction:E106; 

>  <experiment>  (24) 
sulfonimide_whole

>  <cluster_label>  (24) 
4

>  <cluster_rank>  (24) 
2

>  <N_interactions>  (24) 
3

>  <∆∆G>  (24) 
-6.050994

>  <comRMSD>  (24) 
0.859902

>  <ROCS_TanimotoCombo>  (24) 
0.346

>  <ROCS_ShapeTanimoto>  (24) 
0.195

>  <ROCS_ColorTanimoto>  (24) 
0.151

>  <ref_pdb>  (24) 
A71x0310a

>  <ref_mols>  (24) 
A71x0446a,A71x1080a,A71x0812a,A71x0719a,A71x1140a,A71x0528a,A71x0310a

>  <original SMILES>  (24) 
CCOC(=O)c1[nH]c(C)c(S(N)(=O)=O)c1C

>  <origin>  (24) 
A71-ROCS-iter2.sdf

>  <butcher #BAD>  (24) 
2

>  <butcher #GOOD>  (24) 
14

>  <butcher #protein clash>  (24) 
0

>  <butcher #solvent space>  (24) 
2

>  <butcher #pocket>  (24) 
14

>  <butcher #P1>  (24) 
13

>  <butcher #P2>  (24) 
1

>  <butcher #P1'>  (24) 
0

>  <butcher #P2'>  (24) 
0

>  <butcher #P3>  (24) 
0

>  <butcher #P4>  (24) 
0

>  <butcher #P5>  (24) 
0

>  <butcher #P6>  (24) 
0

$$$$
EN300_359480
     RDKit          3D

 15 16  0  0  0  0  0  0  0  0999 V2000
   10.1240    8.6620   22.9370 C   0  0  0  0  0  0  0  0  0  0  0  0
   10.2160   10.0850   22.8670 N   0  0  0  0  0  0  0  0  0  0  0  0
    9.3600   10.7670   23.7210 C   0  0  0  0  0  0  0  0  0  0  0  0
    8.3730   10.1000   24.3600 N   0  0  0  0  0  0  0  0  0  0  0  0
    7.5670   10.8090   25.2020 C   0  0  0  0  0  0  0  0  0  0  0  0
    7.6790   12.1690   25.4490 C   0  0  0  0  0  0  0  0  0  0  0  0
    6.7700   12.8990   26.4120 C   0  0  0  0  0  0  0  0  0  0  0  0
    5.7160   12.2250   26.9810 C   0  0  0  0  0  0  0  0  0  0  0  0
    5.1600   13.1640   26.1140 C   0  0  0  0  0  0  0  0  0  0  0  0
    8.6930   12.8090   24.7650 C   0  0  0  0  0  0  0  0  0  0  0  0
    9.5410   12.1270   23.9070 C   0  0  0  0  0  0  0  0  0  0  0  0
   10.6150   12.9170   23.2400 C   0  0  0  0  0  0  0  0  0  0  0  0
   10.4180   13.0840   21.9260 F   0  0  0  0  0  0  0  0  0  0  0  0
   11.8640   12.4330   23.3640 F   0  0  0  0  0  0  0  0  0  0  0  0
   10.7130   14.1730   23.7270 F   0  0  0  0  0  0  0  0  0  0  0  0
  1  2  1  0
  2  3  1  0
  3  4  2  0
  4  5  1  0
  5  6  2  0
  6  7  1  0
  7  8  1  0
  8  9  1  0
  6 10  1  0
 10 11  2  0
 11 12  1  0
 12 13  1  0
 12 14  1  0
 12 15  1  0
 11  3  1  0
  9  7  1  0
A    1
 C1 
A    2
 N1 
A    3
 C2 
A    4
 N2 
A    5
 C3 
A    6
 C4 
A    7
 C5 
A    8
 C6 
A    9
 C7 
A   10
 C8 
A   11
 C9 
A   12
 C10
A   13
 F1 
A   14
 F2 
A   15
 F3 
M  END
>  <ref_url>  (25) 
nan

>  <submitter_name>  (25) 
nan

>  <submitter_email>  (25) 
nan

>  <submitter_institution>  (25) 
nan

>  <generation_date>  (25) 
nan

>  <method>  (25) 
nan

>  <rationale>  (25) 
info info set:bb_densepocket2;halogenbond:C110+P107; hbond:S125; hydroph_interaction:P107; 

>  <experiment>  (25) 
bb_densepocket2

>  <cluster_label>  (25) 
2

>  <cluster_rank>  (25) 
2

>  <N_interactions>  (25) 
4

>  <∆∆G>  (25) 
-4.381063

>  <comRMSD>  (25) 
0.71304

>  <ROCS_TanimotoCombo>  (25) 
0.614

>  <ROCS_ShapeTanimoto>  (25) 
0.259

>  <ROCS_ColorTanimoto>  (25) 
0.355

>  <ref_pdb>  (25) 
A71x0310a

>  <ref_mols>  (25) 
A71x0446a,A71x1080a,A71x0812a,A71x0719a,A71x1140a,A71x0528a,A71x0310a

>  <original SMILES>  (25) 
CNc1ncc(C2CC2)cc1C(F)(F)F

>  <origin>  (25) 
A71-ROCS-iter2.sdf

>  <butcher #BAD>  (25) 
1

>  <butcher #GOOD>  (25) 
14

>  <butcher #protein clash>  (25) 
0

>  <butcher #solvent space>  (25) 
1

>  <butcher #pocket>  (25) 
14

>  <butcher #P1>  (25) 
13

>  <butcher #P2>  (25) 
0

>  <butcher #P1'>  (25) 
0

>  <butcher #P2'>  (25) 
0

>  <butcher #P3>  (25) 
1

>  <butcher #P4>  (25) 
0

>  <butcher #P5>  (25) 
0

>  <butcher #P6>  (25) 
0

$$$$
EN300_277778
     RDKit          3D

 17 17  0  0  0  0  0  0  0  0999 V2000
   11.0310    8.7160   23.0890 N   0  0  0  0  0  0  0  0  0  0  0  0
    9.9790    9.0230   22.8400 C   0  0  0  0  0  0  0  0  0  0  0  0
    9.2080    8.1990   22.0340 O   0  0  0  0  0  0  0  0  0  0  0  0
    9.4800   10.3480   23.3470 C   0  0  0  0  0  0  0  0  0  0  0  0
    8.3520   10.3940   24.3720 C   0  0  0  0  0  0  0  0  0  0  0  0
    7.7790   11.7280   24.9170 C   0  0  0  0  0  0  0  0  0  0  0  0
    6.7980   11.7490   25.7940 N   0  0  0  0  0  4  0  0  0  0  0  0
    5.7360   12.2570   25.4280 O   0  0  0  0  0  0  0  0  0  0  0  0
    7.1060   11.6850   26.9770 O   0  0  0  0  0  1  0  0  0  0  0  0
    8.4770   12.9850   24.3220 C   0  0  0  0  0  0  0  0  0  0  0  0
    7.9590   14.5400   24.8290 Cl  0  0  0  0  0  0  0  0  0  0  0  0
    9.5200   12.8160   23.3820 C   0  0  0  0  0  0  0  0  0  0  0  0
   10.3480   14.1880   22.6860 S   0  0  0  0  0  6  0  0  0  0  0  0
   11.6460   13.6330   21.7910 N   0  0  0  0  0  0  0  0  0  0  0  0
    9.4620   14.8090   21.7160 O   0  0  0  0  0  0  0  0  0  0  0  0
   11.0310   14.8200   23.7800 O   0  0  0  0  0  0  0  0  0  0  0  0
   10.0230   11.4960   22.8920 C   0  0  0  0  0  0  0  0  0  0  0  0
  1  2  1  0
  2  3  2  0
  2  4  1  0
  4  5  2  0
  5  6  1  0
  6  7  1  0
  7  8  2  0
  7  9  1  0
  6 10  2  0
 10 11  1  0
 10 12  1  0
 12 13  1  0
 13 14  1  0
 13 15  2  0
 13 16  2  0
 12 17  2  0
 17  4  1  0
M  CHG  2   7   1   9  -1
A    1
 N1 
A    2
 C1 
A    3
 O1 
A    4
 C2 
A    5
 C3 
A    6
 C4 
A    7
 N2 
A    8
 O2 
A    9
 O3 
A   10
 C5 
A   11
CL1 
A   12
 C6 
A   13
 S1 
A   14
 N3 
A   15
 O4 
A   16
 O5 
A   17
 C7 
M  END
>  <ref_url>  (26) 
nan

>  <submitter_name>  (26) 
nan

>  <submitter_email>  (26) 
nan

>  <submitter_institution>  (26) 
nan

>  <generation_date>  (26) 
nan

>  <method>  (26) 
nan

>  <rationale>  (26) 
info info set:sulfonimide_whole;hbond:S87+S105+S125+P107; 

>  <experiment>  (26) 
sulfonimide_whole

>  <cluster_label>  (26) 
11

>  <cluster_rank>  (26) 
2

>  <N_interactions>  (26) 
4

>  <∆∆G>  (26) 
-3.639115

>  <comRMSD>  (26) 
0.651007

>  <ROCS_TanimotoCombo>  (26) 
0.346

>  <ROCS_ShapeTanimoto>  (26) 
0.215

>  <ROCS_ColorTanimoto>  (26) 
0.131

>  <ref_pdb>  (26) 
A71x0310a

>  <ref_mols>  (26) 
A71x0446a,A71x1080a,A71x0812a,A71x0719a,A71x1140a,A71x0528a,A71x0310a

>  <original SMILES>  (26) 
NC(=O)c1cc([N+](=O)[O-])c(Cl)c(S(N)(=O)=O)c1

>  <origin>  (26) 
A71-ROCS-iter2.sdf

>  <butcher #BAD>  (26) 
2

>  <butcher #GOOD>  (26) 
15

>  <butcher #protein clash>  (26) 
2

>  <butcher #solvent space>  (26) 
0

>  <butcher #pocket>  (26) 
15

>  <butcher #P1>  (26) 
13

>  <butcher #P2>  (26) 
1

>  <butcher #P1'>  (26) 
1

>  <butcher #P2'>  (26) 
0

>  <butcher #P3>  (26) 
0

>  <butcher #P4>  (26) 
0

>  <butcher #P5>  (26) 
0

>  <butcher #P6>  (26) 
0

$$$$
Z55423090
     RDKit          3D

 17 18  0  0  0  0  0  0  0  0999 V2000
   11.9630   13.1840   22.7750 C   0  0  0  0  0  0  0  0  0  0  0  0
   10.7710   12.3770   23.1950 C   0  0  0  0  0  0  0  0  0  0  0  0
   10.4710   11.0150   23.0650 C   0  0  0  0  0  0  0  0  0  0  0  0
    9.2920   10.7270   23.6320 C   0  0  0  0  0  0  0  0  0  0  0  0
    8.6910    9.5380   23.7360 N   0  0  0  0  0  0  0  0  0  0  0  0
    8.8560   11.9110   24.0700 N   0  0  0  0  0  0  0  0  0  0  0  0
    7.7620   12.1750   24.6550 C   0  0  0  0  0  0  0  0  0  0  0  0
    7.3100   11.3670   25.6980 C   0  0  0  0  0  0  0  0  0  0  0  0
    6.1150   11.6380   26.3920 C   0  0  0  0  0  0  0  0  0  0  0  0
    5.3920   12.7540   25.9950 C   0  0  0  0  0  0  0  0  0  0  0  0
    5.8660   13.6000   24.8870 C   0  0  0  0  0  0  0  0  0  0  0  0
    7.0370   13.3000   24.2220 C   0  0  0  0  0  0  0  0  0  0  0  0
    7.4140   14.2190   23.0890 C   0  0  0  0  0  0  0  0  0  0  0  0
    6.6110   15.2890   22.9100 F   0  0  0  0  0  0  0  0  0  0  0  0
    8.7050   14.5770   23.1780 F   0  0  0  0  0  0  0  0  0  0  0  0
    7.3930   13.6240   21.8670 F   0  0  0  0  0  0  0  0  0  0  0  0
    9.7470   12.9350   23.8260 N   0  0  0  0  0  0  0  0  0  0  0  0
  1  2  1  0
  2  3  1  0
  3  4  2  0
  4  5  1  0
  4  6  1  0
  6  7  1  0
  7  8  2  0
  8  9  1  0
  9 10  2  0
 10 11  1  0
 11 12  2  0
 12 13  1  0
 13 14  1  0
 13 15  1  0
 13 16  1  0
  6 17  1  0
 17  2  2  0
 12  7  1  0
A    1
 C1 
A    2
 C2 
A    3
 C3 
A    4
 C4 
A    5
 N1 
A    6
 N2 
A    7
 C5 
A    8
 C6 
A    9
 C7 
A   10
 C8 
A   11
 C9 
A   12
 C10
A   13
 C11
A   14
 F1 
A   15
 F2 
A   16
 F3 
A   17
 N3 
M  END
>  <ref_url>  (27) 
nan

>  <submitter_name>  (27) 
nan

>  <submitter_email>  (27) 
nan

>  <submitter_institution>  (27) 
nan

>  <generation_date>  (27) 
nan

>  <method>  (27) 
nan

>  <rationale>  (27) 
info info set:3d;halogenbond:E85; hbond:S105; 

>  <experiment>  (27) 
3d

>  <cluster_label>  (27) 
1

>  <cluster_rank>  (27) 
2

>  <N_interactions>  (27) 
2

>  <∆∆G>  (27) 
-3.577937

>  <comRMSD>  (27) 
0.504708

>  <ROCS_TanimotoCombo>  (27) 
0.339

>  <ROCS_ShapeTanimoto>  (27) 
0.23

>  <ROCS_ColorTanimoto>  (27) 
0.109

>  <ref_pdb>  (27) 
A71x0310a

>  <ref_mols>  (27) 
A71x0446a,A71x1080a,A71x0812a,A71x0719a,A71x1140a,A71x0528a,A71x0310a

>  <original SMILES>  (27) 
Cc1cc(N)n(-c2ccccc2C(F)(F)F)n1

>  <origin>  (27) 
A71-ROCS-iter2.sdf

>  <butcher #BAD>  (27) 
1

>  <butcher #GOOD>  (27) 
16

>  <butcher #protein clash>  (27) 
0

>  <butcher #solvent space>  (27) 
1

>  <butcher #pocket>  (27) 
16

>  <butcher #P1>  (27) 
14

>  <butcher #P2>  (27) 
0

>  <butcher #P1'>  (27) 
0

>  <butcher #P2'>  (27) 
0

>  <butcher #P3>  (27) 
2

>  <butcher #P4>  (27) 
0

>  <butcher #P5>  (27) 
0

>  <butcher #P6>  (27) 
0

$$$$
Z4967399033
     RDKit          3D

 29 32  0  0  0  0  0  0  0  0999 V2000
   10.5160    9.7100   23.0750 C   0  0  0  0  0  0  0  0  0  0  0  0
    9.6420   10.8920   23.5340 C   0  0  0  0  0  0  0  0  0  0  0  0
    9.9380   12.1380   23.1310 N   0  0  0  0  0  0  0  0  0  0  0  0
    9.1130   13.1620   23.4820 C   0  0  0  0  0  0  0  0  0  0  0  0
    9.3330   14.3390   23.1250 O   0  0  0  0  0  0  0  0  0  0  0  0
   10.6000   14.6000   22.6390 C   0  0  0  0  0  0  0  0  0  0  0  0
   11.7560   14.6460   23.6280 C   0  0  0  0  0  0  0  0  0  0  0  0
   11.2770   14.4760   25.1890 Cl  0  0  0  0  0  0  0  0  0  0  0  0
   13.1360   14.8680   23.1510 C   0  0  0  0  0  0  0  0  0  0  0  0
   13.3870   15.0890   21.6920 C   0  0  0  0  0  0  0  0  0  0  0  0
   12.2630   15.0960   20.7190 C   0  0  0  0  0  0  0  0  0  0  0  0
   10.8410   14.8710   21.1790 C   0  0  0  0  0  0  0  0  0  0  0  0
    9.7710   14.9400   20.3340 C   0  0  0  0  0  0  0  0  0  0  0  0
    9.8490   15.6020   19.2250 N   0  0  0  0  0  0  0  0  0  0  0  0
    8.7010   14.4620   20.6560 O   0  0  0  0  0  0  0  0  0  0  0  0
    7.9740   12.8820   24.2470 C   0  0  0  0  0  0  0  0  0  0  0  0
    6.9330   13.6640   24.6970 C   0  0  0  0  0  0  0  0  0  0  0  0
    6.8290   15.0510   24.4200 C   0  0  0  0  0  0  0  0  0  0  0  0
    6.0000   12.9260   25.4020 C   0  0  0  0  0  0  0  0  0  0  0  0
    4.6320   13.3650   25.9800 C   0  0  0  0  0  0  0  0  0  0  0  0
    4.3310   13.0710   27.2520 C   0  0  0  0  0  0  0  0  0  0  0  0
    2.9950   13.4680   27.7760 C   0  0  0  0  0  0  0  0  0  0  0  0
    1.8220   14.1980   27.0800 C   0  0  0  0  0  0  0  0  0  0  0  0
    2.4080   14.3820   25.7970 C   0  0  0  0  0  0  0  0  0  0  0  0
    3.6500   14.0310   25.2690 C   0  0  0  0  0  0  0  0  0  0  0  0
    3.8420   14.4980   23.6270 Cl  0  0  0  0  0  0  0  0  0  0  0  0
    6.4670   11.2860   25.5810 S   0  0  0  0  0  0  0  0  0  0  0  0
    7.8310   11.5590   24.6250 C   0  0  0  0  0  0  0  0  0  0  0  0
    8.6200   10.5400   24.3050 N   0  0  0  0  0  0  0  0  0  0  0  0
  1  2  1  0
  2  3  2  0
  3  4  1  0
  4  5  1  0
  5  6  1  0
  6  7  2  0
  7  8  1  0
  7  9  1  0
  9 10  2  0
 10 11  1  0
 11 12  2  0
 12 13  1  0
 13 14  1  0
 13 15  2  0
  4 16  2  0
 16 17  1  0
 17 18  1  0
 17 19  2  0
 19 20  1  0
 20 21  2  0
 21 22  1  0
 22 23  2  0
 23 24  1  0
 24 25  2  0
 25 26  1  0
 19 27  1  0
 27 28  1  0
 28 29  2  0
 29  2  1  0
 12  6  1  0
 28 16  1  0
 25 20  1  0
A    1
 C1 
A    2
 C2 
A    3
 N1 
A    4
 C3 
A    5
 O1 
A    6
 C4 
A    7
 C5 
A    8
CL1 
A    9
 C6 
A   10
 C7 
A   11
 C8 
A   12
 C9 
A   13
 C10
A   14
 N2 
A   15
 O2 
A   16
 C11
A   17
 C12
A   18
 C13
A   19
 C14
A   20
 C15
A   21
 C16
A   22
 C17
A   23
 C18
A   24
 C19
A   25
 C20
A   26
CL2 
A   27
 S1 
A   28
 C21
A   29
 N3 
M  END
>  <ref_url>  (28) 
nan

>  <submitter_name>  (28) 
nan

>  <submitter_email>  (28) 
nan

>  <submitter_institution>  (28) 
nan

>  <generation_date>  (28) 
nan

>  <method>  (28) 
nan

>  <rationale>  (28) 
info info set:screening_whole;hbond:S87+G127+Q95; hydroph_interaction:Y89+Y90; pistack:H21; 

>  <experiment>  (28) 
screening_whole

>  <cluster_label>  (28) 
18

>  <cluster_rank>  (28) 
2

>  <N_interactions>  (28) 
7

>  <∆∆G>  (28) 
-6.228216

>  <comRMSD>  (28) 
0.818239

>  <ROCS_TanimotoCombo>  (28) 
0.458

>  <ROCS_ShapeTanimoto>  (28) 
0.264

>  <ROCS_ColorTanimoto>  (28) 
0.194

>  <ref_pdb>  (28) 
A71x0310a

>  <ref_mols>  (28) 
A71x0446a,A71x1080a,A71x0812a,A71x0719a,A71x1140a,A71x0528a,A71x0310a

>  <original SMILES>  (28) 
Cc1nc(Oc2c(Cl)cccc2C(N)=O)c2c(C)c(-c3ccccc3Cl)sc2n1

>  <origin>  (28) 
A71-ROCS-iter2.sdf

>  <butcher #BAD>  (28) 
3

>  <butcher #GOOD>  (28) 
26

>  <butcher #protein clash>  (28) 
0

>  <butcher #solvent space>  (28) 
3

>  <butcher #pocket>  (28) 
26

>  <butcher #P1>  (28) 
12

>  <butcher #P2>  (28) 
5

>  <butcher #P1'>  (28) 
4

>  <butcher #P2'>  (28) 
0

>  <butcher #P3>  (28) 
5

>  <butcher #P4>  (28) 
0

>  <butcher #P5>  (28) 
0

>  <butcher #P6>  (28) 
0

$$$$
Z729056044
     RDKit          3D

 20 22  0  0  0  0  0  0  0  0999 V2000
    5.9490   10.8830   26.8980 C   0  0  0  0  0  0  0  0  0  0  0  0
    6.6940   10.3240   25.8820 N   0  0  0  0  0  0  0  0  0  0  0  0
    7.6070   10.9390   25.0080 C   0  0  0  0  0  0  0  0  0  0  0  0
    7.6270   12.2970   24.8040 C   0  0  0  0  0  0  0  0  0  0  0  0
    8.5170   12.9290   23.9470 C   0  0  0  0  0  0  0  0  0  0  0  0
    9.4410   12.1360   23.2590 C   0  0  0  0  0  0  0  0  0  0  0  0
   10.2840   12.7870   22.4630 N   0  0  0  0  0  0  0  0  0  0  0  0
   11.3100   13.5590   22.9920 C   0  0  0  0  0  0  0  0  0  0  0  0
   10.9460   14.2120   24.0760 N   0  0  0  0  0  0  0  0  0  0  0  0
   11.8370   14.9650   24.7520 C   0  0  0  0  0  0  0  0  0  0  0  0
   13.1010   15.1520   24.5050 N   0  0  0  0  0  0  0  0  0  0  0  0
   13.4970   14.5280   23.4380 C   0  0  0  0  0  0  0  0  0  0  0  0
   15.1150   14.6100   22.9760 S   0  0  0  0  0  0  0  0  0  0  0  0
   14.8210   13.6560   21.6670 C   0  0  0  0  0  0  0  0  0  0  0  0
   15.8410   13.1310   20.6690 C   0  0  0  0  0  0  0  0  0  0  0  0
   13.5960   13.2900   21.4840 C   0  0  0  0  0  0  0  0  0  0  0  0
   13.6620   12.5320   20.1880 C   0  0  0  0  0  0  0  0  0  0  0  0
   12.6560   13.6850   22.5320 C   0  0  0  0  0  0  0  0  0  0  0  0
    9.3700   10.7550   23.5100 C   0  0  0  0  0  0  0  0  0  0  0  0
    8.4780   10.1520   24.3580 N   0  0  0  0  0  0  0  0  0  0  0  0
  1  2  1  0
  2  3  1  0
  3  4  2  0
  4  5  1  0
  5  6  2  0
  6  7  1  0
  7  8  1  0
  8  9  2  0
  9 10  1  0
 10 11  2  0
 11 12  1  0
 12 13  1  0
 13 14  1  0
 14 15  1  0
 14 16  2  0
 16 17  1  0
 16 18  1  0
  6 19  1  0
 19 20  2  0
 20  3  1  0
 18  8  1  0
 18 12  2  0
A    1
 C1 
A    2
 N1 
A    3
 C2 
A    4
 C3 
A    5
 C4 
A    6
 C5 
A    7
 N2 
A    8
 C6 
A    9
 N3 
A   10
 C7 
A   11
 N4 
A   12
 C8 
A   13
 S1 
A   14
 C9 
A   15
 C10
A   16
 C11
A   17
 C12
A   18
 C13
A   19
 C14
A   20
 N5 
M  END
>  <ref_url>  (29) 
nan

>  <submitter_name>  (29) 
nan

>  <submitter_email>  (29) 
nan

>  <submitter_institution>  (29) 
nan

>  <generation_date>  (29) 
nan

>  <method>  (29) 
nan

>  <rationale>  (29) 
info info set:screening_pocket;hbond:S87+S105+S125; hydroph_interaction:H21+L22+N19; pistack:Y90; 

>  <experiment>  (29) 
screening_pocket

>  <cluster_label>  (29) 
13

>  <cluster_rank>  (29) 
2

>  <N_interactions>  (29) 
7

>  <∆∆G>  (29) 
-3.773515

>  <comRMSD>  (29) 
0.991884

>  <ROCS_TanimotoCombo>  (29) 
0.632

>  <ROCS_ShapeTanimoto>  (29) 
0.227

>  <ROCS_ColorTanimoto>  (29) 
0.405

>  <ref_pdb>  (29) 
A71x0310a

>  <ref_mols>  (29) 
A71x0446a,A71x1080a,A71x0812a,A71x0719a,A71x1140a,A71x0528a,A71x0310a

>  <original SMILES>  (29) 
CNc1ccc(Nc2ncnc3sc(C)c(C)c23)cn1

>  <origin>  (29) 
A71-ROCS-iter2.sdf

>  <butcher #BAD>  (29) 
5

>  <butcher #GOOD>  (29) 
15

>  <butcher #protein clash>  (29) 
5

>  <butcher #solvent space>  (29) 
0

>  <butcher #pocket>  (29) 
15

>  <butcher #P1>  (29) 
11

>  <butcher #P2>  (29) 
0

>  <butcher #P1'>  (29) 
4

>  <butcher #P2'>  (29) 
0

>  <butcher #P3>  (29) 
0

>  <butcher #P4>  (29) 
0

>  <butcher #P5>  (29) 
0

>  <butcher #P6>  (29) 
0

$$$$
EN300_37443701
     RDKit          3D

 13 14  0  0  0  0  0  0  0  0999 V2000
   11.7790   13.7680   21.4340 N   0  0  0  0  0  0  0  0  0  0  0  0
   10.5290   14.6660   21.9950 S   0  0  0  0  0  6  0  0  0  0  0  0
   10.2630   15.6550   20.9790 O   0  0  0  0  0  0  0  0  0  0  0  0
   11.0900   14.9480   23.2940 O   0  0  0  0  0  0  0  0  0  0  0  0
    9.0100   13.7920   22.3300 C   0  0  0  0  0  0  0  0  0  0  0  0
    9.0420   12.5550   23.1910 C   0  0  2  0  0  0  0  0  0  0  0  0
   10.3620   12.4530   23.5830 C   0  0  0  0  0  0  0  0  0  0  0  0
    9.7860   11.1480   22.9820 C   0  0  1  0  0  0  0  0  0  0  0  0
    9.0090   10.1490   23.8060 C   0  0  0  0  0  0  0  0  0  0  0  0
    8.1400   10.8830   24.7470 C   0  0  0  0  0  0  0  0  0  0  0  0
    8.1490   12.3870   24.4080 C   0  0  0  0  0  0  0  0  0  0  0  0
    8.5650   13.1550   25.3990 F   0  0  0  0  0  0  0  0  0  0  0  0
    6.9250   12.8400   24.1630 F   0  0  0  0  0  0  0  0  0  0  0  0
  1  2  1  0
  2  3  2  0
  2  4  2  0
  2  5  1  0
  6  5  1  6
  6  7  1  0
  8  7  1  1
  8  9  1  0
  9 10  1  0
 10 11  1  0
 11 12  1  0
 11 13  1  0
  8  6  1  0
 11  6  1  0
A    1
 N1 
A    2
 S1 
A    3
 O1 
A    4
 O2 
A    5
 C1 
A    6
 C2 
A    7
 C3 
A    8
 C4 
A    9
 C5 
A   10
 C6 
A   11
 C7 
A   12
 F1 
A   13
 F2 
M  END
>  <ref_url>  (30) 
nan

>  <submitter_name>  (30) 
nan

>  <submitter_email>  (30) 
nan

>  <submitter_institution>  (30) 
nan

>  <generation_date>  (30) 
nan

>  <method>  (30) 
nan

>  <rationale>  (30) 
info info set:sulfonimide_whole;halogenbond:G127; hbond:S87+S125; hydroph_interaction:P107; 

>  <experiment>  (30) 
sulfonimide_whole

>  <cluster_label>  (30) 
14

>  <cluster_rank>  (30) 
2

>  <N_interactions>  (30) 
4

>  <∆∆G>  (30) 
-0.317492

>  <comRMSD>  (30) 
0.765759

>  <ROCS_TanimotoCombo>  (30) 
0.376

>  <ROCS_ShapeTanimoto>  (30) 
0.194

>  <ROCS_ColorTanimoto>  (30) 
0.182

>  <ref_pdb>  (30) 
A71x0310a

>  <ref_mols>  (30) 
A71x0446a,A71x1080a,A71x0812a,A71x0719a,A71x1140a,A71x0528a,A71x0310a

>  <original SMILES>  (30) 
NS(=O)(=O)C[C@]12C[C@H]1CCC2(F)F

>  <origin>  (30) 
A71-ROCS-iter2.sdf

>  <butcher #BAD>  (30) 
0

>  <butcher #GOOD>  (30) 
13

>  <butcher #protein clash>  (30) 
0

>  <butcher #solvent space>  (30) 
0

>  <butcher #pocket>  (30) 
13

>  <butcher #P1>  (30) 
11

>  <butcher #P2>  (30) 
1

>  <butcher #P1'>  (30) 
1

>  <butcher #P2'>  (30) 
0

>  <butcher #P3>  (30) 
0

>  <butcher #P4>  (30) 
0

>  <butcher #P5>  (30) 
0

>  <butcher #P6>  (30) 
0

$$$$
Z99095183
     RDKit          3D

 17 18  0  0  0  0  0  0  0  0999 V2000
   12.2480   14.6150   18.8570 C   0  0  0  0  0  0  0  0  0  0  0  0
   10.9600   14.7050   19.3220 C   0  0  0  0  0  0  0  0  0  0  0  0
    9.9900   14.1350   18.6000 C   0  0  0  0  0  0  0  0  0  0  0  0
   10.3700   16.0870   19.3310 C   0  0  0  0  0  0  0  0  0  0  0  0
   10.9610   14.1370   20.6690 N   0  0  0  0  0  0  0  0  0  0  0  0
    9.9790   14.2370   21.6110 C   0  0  0  0  0  0  0  0  0  0  0  0
    8.8120   14.5510   21.4060 O   0  0  0  0  0  0  0  0  0  0  0  0
   10.5500   13.8710   22.9880 C   0  0  0  0  0  0  0  0  0  0  0  0
    9.6870   12.7270   23.5250 C   0  0  0  0  0  0  0  0  0  0  0  0
   10.1070   11.4610   23.4020 N   0  0  0  0  0  0  0  0  0  0  0  0
    9.1520   10.6750   24.0280 O   0  0  0  0  0  0  0  0  0  0  0  0
    8.1560   11.4580   24.5090 C   0  0  0  0  0  0  0  0  0  0  0  0
    6.9310   10.9120   25.2790 C   0  0  0  0  0  0  0  0  0  0  0  0
    5.8790   11.9500   25.7430 C   0  0  0  0  0  0  0  0  0  0  0  0
    6.1590   13.2680   25.4050 C   0  0  0  0  0  0  0  0  0  0  0  0
    7.3860   13.7730   24.6530 C   0  0  0  0  0  0  0  0  0  0  0  0
    8.4530   12.7710   24.1870 C   0  0  0  0  0  0  0  0  0  0  0  0
  1  2  1  0
  2  3  1  0
  2  4  1  0
  2  5  1  0
  5  6  1  0
  6  7  2  0
  6  8  1  0
  8  9  1  0
  9 10  2  0
 10 11  1  0
 11 12  1  0
 12 13  2  0
 13 14  1  0
 14 15  2  0
 15 16  1  0
 16 17  2  0
 17  9  1  0
 17 12  1  0
A    1
 C1 
A    2
 C2 
A    3
 C3 
A    4
 C4 
A    5
 N1 
A    6
 C5 
A    7
 O1 
A    8
 C6 
A    9
 C7 
A   10
 N2 
A   11
 O2 
A   12
 C8 
A   13
 C9 
A   14
 C10
A   15
 C11
A   16
 C12
A   17
 C13
M  END
>  <ref_url>  (31) 
nan

>  <submitter_name>  (31) 
nan

>  <submitter_email>  (31) 
nan

>  <submitter_institution>  (31) 
nan

>  <generation_date>  (31) 
nan

>  <method>  (31) 
nan

>  <rationale>  (31) 
info info set:3d;hbond:S87; hydroph_interaction:Y90+D39; 

>  <experiment>  (31) 
3d

>  <cluster_label>  (31) 
8

>  <cluster_rank>  (31) 
2

>  <N_interactions>  (31) 
4

>  <∆∆G>  (31) 
-5.735914

>  <comRMSD>  (31) 
0.814618

>  <ROCS_TanimotoCombo>  (31) 
0.35

>  <ROCS_ShapeTanimoto>  (31) 
0.191

>  <ROCS_ColorTanimoto>  (31) 
0.159

>  <ref_pdb>  (31) 
A71x0310a

>  <ref_mols>  (31) 
A71x0446a,A71x1080a,A71x0812a,A71x0719a,A71x1140a,A71x0528a,A71x0310a

>  <original SMILES>  (31) 
CC(C)(C)NC(=O)Cc1noc2ccccc12

>  <origin>  (31) 
A71-ROCS-iter2.sdf

>  <butcher #BAD>  (31) 
2

>  <butcher #GOOD>  (31) 
15

>  <butcher #protein clash>  (31) 
1

>  <butcher #solvent space>  (31) 
1

>  <butcher #pocket>  (31) 
15

>  <butcher #P1>  (31) 
11

>  <butcher #P2>  (31) 
4

>  <butcher #P1'>  (31) 
0

>  <butcher #P2'>  (31) 
0

>  <butcher #P3>  (31) 
0

>  <butcher #P4>  (31) 
0

>  <butcher #P5>  (31) 
0

>  <butcher #P6>  (31) 
0

$$$$
Z2306626585
     RDKit          3D

 16 17  0  0  0  0  0  0  0  0999 V2000
    5.6940   12.1070   25.9950 O   0  0  0  0  0  0  0  0  0  0  0  0
    6.5350   12.9920   25.2310 C   0  0  0  0  0  0  0  0  0  0  0  0
    6.3500   14.3140   25.0790 O   0  0  0  0  0  0  0  0  0  0  0  0
    7.7020   12.3250   24.5420 C   0  0  0  0  0  0  0  0  0  0  0  0
    7.7520   10.8690   24.7970 C   0  0  0  0  0  0  0  0  0  0  0  0
    8.8650   10.1130   24.1290 C   0  0  0  0  0  0  0  0  0  0  0  0
   10.0100   10.6610   23.1880 C   0  0  0  0  0  0  0  0  0  0  0  0
    9.6890   12.2020   23.1360 C   0  0  0  0  0  0  0  0  0  0  0  0
   10.6120   13.0370   22.3090 C   0  0  0  0  0  0  0  0  0  0  0  0
   10.7370   14.4020   22.6840 N   0  0  0  0  0  0  0  0  0  0  0  0
   11.5960   14.4790   23.7590 C   0  0  0  0  0  0  0  0  0  0  0  0
   13.0950   14.6300   23.5590 C   0  0  0  0  0  0  0  0  0  0  0  0
   13.1880   15.4650   22.2910 C   0  0  0  0  0  0  0  0  0  0  0  0
   12.3740   14.8180   21.2060 C   0  0  0  0  0  0  0  0  0  0  0  0
   11.0160   15.0160   21.3610 C   0  0  0  0  0  0  0  0  0  0  0  0
    8.6420   12.9090   23.7560 C   0  0  0  0  0  0  0  0  0  0  0  0
  1  2  2  0
  2  3  1  0
  2  4  1  0
  4  5  2  0
  5  6  1  0
  6  7  2  0
  7  8  1  0
  8  9  1  0
  9 10  1  0
 10 11  1  0
 11 12  1  0
 12 13  1  0
 13 14  1  0
 14 15  1  0
  8 16  2  0
 16  4  1  0
 15 10  1  0
A    1
 O1 
A    2
 C1 
A    3
 O2 
A    4
 C2 
A    5
 C3 
A    6
 C4 
A    7
 C5 
A    8
 C6 
A    9
 C7 
A   10
 N1 
A   11
 C8 
A   12
 C9 
A   13
 C10
A   14
 C11
A   15
 C12
A   16
 C13
M  END
>  <ref_url>  (32) 
nan

>  <submitter_name>  (32) 
nan

>  <submitter_email>  (32) 
nan

>  <submitter_institution>  (32) 
nan

>  <generation_date>  (32) 
nan

>  <method>  (32) 
nan

>  <rationale>  (32) 
info info set:3d;hbond:S87; hydroph_interaction:Y89+Y90; pication:H21; 

>  <experiment>  (32) 
3d

>  <cluster_label>  (32) 
12

>  <cluster_rank>  (32) 
2

>  <N_interactions>  (32) 
4

>  <∆∆G>  (32) 
-5.426417

>  <comRMSD>  (32) 
0.446721

>  <ROCS_TanimotoCombo>  (32) 
0.33

>  <ROCS_ShapeTanimoto>  (32) 
0.218

>  <ROCS_ColorTanimoto>  (32) 
0.112

>  <ref_pdb>  (32) 
A71x0310a

>  <ref_mols>  (32) 
A71x0446a,A71x1080a,A71x0812a,A71x0719a,A71x1140a,A71x0528a,A71x0310a

>  <original SMILES>  (32) 
O=C(O)c1cccc(CN2CCCCC2)c1

>  <origin>  (32) 
A71-ROCS-iter2.sdf

>  <butcher #BAD>  (32) 
1

>  <butcher #GOOD>  (32) 
15

>  <butcher #protein clash>  (32) 
0

>  <butcher #solvent space>  (32) 
1

>  <butcher #pocket>  (32) 
15

>  <butcher #P1>  (32) 
10

>  <butcher #P2>  (32) 
1

>  <butcher #P1'>  (32) 
3

>  <butcher #P2'>  (32) 
0

>  <butcher #P3>  (32) 
1

>  <butcher #P4>  (32) 
0

>  <butcher #P5>  (32) 
0

>  <butcher #P6>  (32) 
0

$$$$
EN300_263007
     RDKit          3D

 15 16  0  0  0  0  0  0  0  0999 V2000
    6.0820   15.5520   22.2300 N   0  0  0  0  0  0  0  0  0  0  0  0
    7.4420   14.5940   21.9740 S   0  0  0  0  0  6  0  0  0  0  0  0
    8.3670   15.2900   21.0910 O   0  0  0  0  0  0  0  0  0  0  0  0
    6.9030   13.3620   21.5590 O   0  0  0  0  0  0  0  0  0  0  0  0
    8.0350   14.4660   23.6260 C   0  0  0  0  0  0  0  0  0  0  0  0
    7.5600   13.2660   24.3430 C   0  0  0  0  0  0  0  0  0  0  0  0
    6.3360   13.4300   25.2820 C   0  0  0  0  0  0  0  0  0  0  0  0
    5.8900   12.1270   25.9840 C   0  0  0  0  0  0  0  0  0  0  0  0
    6.7240   10.9020   25.6280 C   0  0  0  0  0  0  0  0  0  0  0  0
    7.9020   10.8930   24.6790 C   0  0  0  0  0  0  0  0  0  0  0  0
    8.6650    9.7810   24.3290 N   0  0  0  0  0  0  0  0  0  0  0  0
    9.7310    9.8560   23.4660 C   0  0  0  0  0  0  0  0  0  0  0  0
   10.0350   11.0890   22.9280 C   0  0  0  0  0  0  0  0  0  0  0  0
    9.3150   12.1910   23.2290 N   0  0  0  0  0  0  0  0  0  0  0  0
    8.2670   12.1060   24.0830 C   0  0  0  0  0  0  0  0  0  0  0  0
  1  2  1  0
  2  3  2  0
  2  4  2  0
  2  5  1  0
  5  6  1  0
  6  7  2  0
  7  8  1  0
  8  9  2  0
  9 10  1  0
 10 11  2  0
 11 12  1  0
 12 13  2  0
 13 14  1  0
 14 15  2  0
 15  6  1  0
 15 10  1  0
A    1
 N1 
A    2
 S1 
A    3
 O1 
A    4
 O2 
A    5
 C1 
A    6
 C2 
A    7
 C3 
A    8
 C4 
A    9
 C5 
A   10
 C6 
A   11
 N2 
A   12
 C7 
A   13
 C8 
A   14
 N3 
A   15
 C9 
M  END
>  <ref_url>  (33) 
nan

>  <submitter_name>  (33) 
nan

>  <submitter_email>  (33) 
nan

>  <submitter_institution>  (33) 
nan

>  <generation_date>  (33) 
nan

>  <method>  (33) 
nan

>  <rationale>  (33) 
info info set:sulfonimide_whole;hbond:S87+G127+A86; 

>  <experiment>  (33) 
sulfonimide_whole

>  <cluster_label>  (33) 
5

>  <cluster_rank>  (33) 
2

>  <N_interactions>  (33) 
3

>  <∆∆G>  (33) 
-5.036012

>  <comRMSD>  (33) 
0.616755

>  <ROCS_TanimotoCombo>  (33) 
0.405

>  <ROCS_ShapeTanimoto>  (33) 
0.21

>  <ROCS_ColorTanimoto>  (33) 
0.195

>  <ref_pdb>  (33) 
A71x0310a

>  <ref_mols>  (33) 
A71x0446a,A71x1080a,A71x0812a,A71x0719a,A71x1140a,A71x0528a,A71x0310a

>  <original SMILES>  (33) 
NS(=O)(=O)Cc1cccc2nccnc12

>  <origin>  (33) 
A71-ROCS-iter2.sdf

>  <butcher #BAD>  (33) 
0

>  <butcher #GOOD>  (33) 
15

>  <butcher #protein clash>  (33) 
0

>  <butcher #solvent space>  (33) 
0

>  <butcher #pocket>  (33) 
15

>  <butcher #P1>  (33) 
12

>  <butcher #P2>  (33) 
2

>  <butcher #P1'>  (33) 
0

>  <butcher #P2'>  (33) 
0

>  <butcher #P3>  (33) 
1

>  <butcher #P4>  (33) 
0

>  <butcher #P5>  (33) 
0

>  <butcher #P6>  (33) 
0

$$$$
Z5346215097
     RDKit          3D

 24 27  0  0  0  0  0  0  0  0999 V2000
   11.1660   14.6050   19.8290 C   0  0  0  0  0  0  0  0  0  0  0  0
   10.9680   15.1950   21.0340 C   0  0  2  0  0  0  0  0  0  0  0  0
   12.3610   15.7460   21.4140 C   0  0  0  0  0  0  0  0  0  0  0  0
   13.0840   14.8640   22.2480 O   0  0  0  0  0  0  0  0  0  0  0  0
   12.3920   14.8260   23.3790 C   0  0  0  0  0  0  0  0  0  0  0  0
   13.0640   15.0610   24.5390 C   0  0  0  0  0  0  0  0  0  0  0  0
   12.3750   15.0890   25.7050 C   0  0  0  0  0  0  0  0  0  0  0  0
   11.0300   14.8470   25.6420 C   0  0  0  0  0  0  0  0  0  0  0  0
   10.3530   14.5700   24.5240 N   0  0  0  0  0  0  0  0  0  0  0  0
   11.0490   14.5780   23.3780 C   0  0  0  0  0  0  0  0  0  0  0  0
   10.4010   14.3600   22.1440 N   0  0  0  0  0  0  0  0  0  0  0  0
    9.0750   13.9450   22.1820 C   0  0  0  0  0  0  0  0  0  0  0  0
    8.1340   14.4230   21.5330 O   0  0  0  0  0  0  0  0  0  0  0  0
    8.8420   12.8250   23.0940 C   0  0  0  0  0  0  0  0  0  0  0  0
    9.6870   11.6430   23.0620 C   0  0  0  0  0  0  0  0  0  0  0  0
   10.7920   11.7820   22.3500 O   0  0  0  0  0  0  0  0  0  0  0  0
    9.5430   10.5300   23.6220 N   0  0  0  0  0  0  0  0  0  0  0  0
    8.4420   10.4310   24.3890 C   0  0  0  0  0  0  0  0  0  0  0  0
    8.0270    9.3540   24.6690 O   0  0  0  0  0  0  0  0  0  0  0  0
    7.8300   11.5990   24.8040 N   0  0  0  0  0  0  0  0  0  0  0  0
    7.8950   12.7480   24.0470 C   0  0  0  0  0  0  0  0  0  0  0  0
    6.9190   13.6780   24.4200 C   0  0  0  0  0  0  0  0  0  0  0  0
    6.1080   12.9990   25.5410 C   0  0  0  0  0  0  0  0  0  0  0  0
    6.7490   11.6390   25.7700 C   0  0  0  0  0  0  0  0  0  0  0  0
  2  1  1  6
  2  3  1  0
  3  4  1  0
  4  5  1  0
  5  6  2  0
  6  7  1  0
  7  8  2  0
  8  9  1  0
  9 10  2  0
 10 11  1  0
 11 12  1  0
 12 13  2  0
 12 14  1  0
 14 15  1  0
 15 16  1  0
 15 17  2  0
 17 18  1  0
 18 19  2  0
 18 20  1  0
 20 21  1  0
 21 22  1  0
 22 23  1  0
 23 24  1  0
 11  2  1  0
 21 14  2  0
 10  5  1  0
 24 20  1  0
A    1
 C1 
A    2
 C2 
A    3
 C3 
A    4
 O1 
A    5
 C4 
A    6
 C5 
A    7
 C6 
A    8
 C7 
A    9
 N1 
A   10
 C8 
A   11
 N2 
A   12
 C9 
A   13
 O2 
A   14
 C10
A   15
 C11
A   16
 O3 
A   17
 N3 
A   18
 C12
A   19
 O4 
A   20
 N4 
A   21
 C13
A   22
 C14
A   23
 C15
A   24
 C16
M  END
>  <ref_url>  (34) 
nan

>  <submitter_name>  (34) 
nan

>  <submitter_email>  (34) 
nan

>  <submitter_institution>  (34) 
nan

>  <generation_date>  (34) 
nan

>  <method>  (34) 
nan

>  <rationale>  (34) 
info info set:screening_whole;hbond:S87+G127+E106; hydroph_interaction:P107+Y89+Y90+E88; 

>  <experiment>  (34) 
screening_whole

>  <cluster_label>  (34) 
6

>  <cluster_rank>  (34) 
2

>  <N_interactions>  (34) 
7

>  <∆∆G>  (34) 
-3.616466

>  <comRMSD>  (34) 
0.697708

>  <ROCS_TanimotoCombo>  (34) 
0.461

>  <ROCS_ShapeTanimoto>  (34) 
0.263

>  <ROCS_ColorTanimoto>  (34) 
0.198

>  <ref_pdb>  (34) 
A71x0310a

>  <ref_mols>  (34) 
A71x0446a,A71x1080a,A71x0812a,A71x0719a,A71x1140a,A71x0528a,A71x0310a

>  <original SMILES>  (34) 
C[C@@H]1COc2cccnc2N1C(=O)c1c(O)nc(=O)n2c1CCC2

>  <origin>  (34) 
A71-ROCS-iter2.sdf

>  <butcher #BAD>  (34) 
0

>  <butcher #GOOD>  (34) 
24

>  <butcher #protein clash>  (34) 
0

>  <butcher #solvent space>  (34) 
0

>  <butcher #pocket>  (34) 
24

>  <butcher #P1>  (34) 
15

>  <butcher #P2>  (34) 
4

>  <butcher #P1'>  (34) 
5

>  <butcher #P2'>  (34) 
0

>  <butcher #P3>  (34) 
0

>  <butcher #P4>  (34) 
0

>  <butcher #P5>  (34) 
0

>  <butcher #P6>  (34) 
0

$$$$
Z2394925055
     RDKit          3D

 19 20  0  0  0  0  0  0  0  0999 V2000
    5.7770   10.9380   27.1130 C   0  0  0  0  0  0  0  0  0  0  0  0
    6.3620   10.2680   25.9740 N   0  0  0  0  0  0  0  0  0  0  0  0
    7.3380   10.8770   25.1800 C   0  0  0  0  0  0  0  0  0  0  0  0
    7.3250   12.3600   24.9350 C   0  0  0  0  0  0  0  0  0  0  0  0
    8.3860   13.1260   24.0460 C   0  0  0  0  0  0  0  0  0  0  0  0
    9.3570   11.9560   23.5580 C   0  0  0  0  0  0  0  0  0  0  0  0
   10.4050   12.3960   22.7490 N   0  0  0  0  0  0  0  0  0  0  0  0
   11.5980   11.7280   22.5950 C   0  0  0  0  0  0  0  0  0  0  0  0
   11.8290   10.5520   22.7570 O   0  0  0  0  0  0  0  0  0  0  0  0
   12.8020   12.5430   22.1350 C   0  0  0  0  0  0  0  0  0  0  0  0
   12.4110   14.0010   21.9200 C   0  0  0  0  0  0  0  0  0  0  0  0
   12.6340   15.0460   22.9700 C   0  0  0  0  0  0  0  0  0  0  0  0
   13.2900   14.3240   24.1490 C   0  0  0  0  0  0  0  0  0  0  0  0
   12.2600   16.2760   22.7150 N   0  0  0  0  0  0  0  0  0  0  0  0
   11.7480   16.2200   21.4460 O   0  0  0  0  0  0  0  0  0  0  0  0
   11.7830   14.9590   20.9000 C   0  0  0  0  0  0  0  0  0  0  0  0
   11.2330   14.8150   19.5290 C   0  0  0  0  0  0  0  0  0  0  0  0
    9.2030   10.6140   23.8940 C   0  0  0  0  0  0  0  0  0  0  0  0
    8.2470   10.0770   24.6640 N   0  0  0  0  0  0  0  0  0  0  0  0
  1  2  1  0
  2  3  1  0
  3  4  2  0
  4  5  1  0
  5  6  2  0
  6  7  1  0
  7  8  1  0
  8  9  2  0
  8 10  1  0
 10 11  1  0
 11 12  1  0
 12 13  1  0
 12 14  2  0
 14 15  1  0
 15 16  1  0
 16 17  1  0
  6 18  1  0
 18 19  2  0
 19  3  1  0
 16 11  2  0
A    1
 C1 
A    2
 N1 
A    3
 C2 
A    4
 C3 
A    5
 C4 
A    6
 C5 
A    7
 N2 
A    8
 C6 
A    9
 O1 
A   10
 C7 
A   11
 C8 
A   12
 C9 
A   13
 C10
A   14
 N3 
A   15
 O2 
A   16
 C11
A   17
 C12
A   18
 C13
A   19
 N4 
M  END
>  <ref_url>  (35) 
nan

>  <submitter_name>  (35) 
nan

>  <submitter_email>  (35) 
nan

>  <submitter_institution>  (35) 
nan

>  <generation_date>  (35) 
nan

>  <method>  (35) 
nan

>  <rationale>  (35) 
info info set:screening_pocket;hbond:S87+S105+C110; hydroph_interaction:P107+Y89+Y90; 

>  <experiment>  (35) 
screening_pocket

>  <cluster_label>  (35) 
16

>  <cluster_rank>  (35) 
2

>  <N_interactions>  (35) 
6

>  <∆∆G>  (35) 
-8.210313

>  <comRMSD>  (35) 
0.456109

>  <ROCS_TanimotoCombo>  (35) 
0.665

>  <ROCS_ShapeTanimoto>  (35) 
0.232

>  <ROCS_ColorTanimoto>  (35) 
0.432

>  <ref_pdb>  (35) 
A71x0310a

>  <ref_mols>  (35) 
A71x0446a,A71x1080a,A71x0812a,A71x0719a,A71x1140a,A71x0528a,A71x0310a

>  <original SMILES>  (35) 
CNc1ccc(NC(=O)Cc2c(C)noc2C)cn1

>  <origin>  (35) 
A71-ROCS-iter2.sdf

>  <butcher #BAD>  (35) 
4

>  <butcher #GOOD>  (35) 
15

>  <butcher #protein clash>  (35) 
3

>  <butcher #solvent space>  (35) 
1

>  <butcher #pocket>  (35) 
15

>  <butcher #P1>  (35) 
8

>  <butcher #P2>  (35) 
3

>  <butcher #P1'>  (35) 
4

>  <butcher #P2'>  (35) 
0

>  <butcher #P3>  (35) 
0

>  <butcher #P4>  (35) 
0

>  <butcher #P5>  (35) 
0

>  <butcher #P6>  (35) 
0

$$$$
EN300_45481960
     RDKit          3D

 19 19  0  0  0  0  0  0  0  0999 V2000
    8.3380   11.0250   24.3830 C   0  0  0  0  0  0  0  0  0  0  0  0
    8.3250   12.4630   23.8350 C   0  0  0  0  0  0  0  0  0  0  0  0
    9.6970   12.8230   23.2570 C   0  0  0  0  0  0  0  0  0  0  0  0
    7.9980   13.3780   25.0090 C   0  0  0  0  0  0  0  0  0  0  0  0
    7.2110   12.7510   22.9200 O   0  0  0  0  0  0  0  0  0  0  0  0
    7.0530   13.8820   22.1260 C   0  0  0  0  0  0  0  0  0  0  0  0
    7.9790   14.5470   21.7380 O   0  0  0  0  0  0  0  0  0  0  0  0
    5.5610   14.1470   21.7510 C   0  0  0  0  0  0  0  0  0  0  0  0
    5.2130   13.0660   20.7680 O   0  0  0  0  0  0  0  0  0  0  0  0
    4.1110   12.6420   19.9580 C   0  0  0  0  0  0  0  0  0  0  0  0
    4.3370   11.3560   19.4180 C   0  0  0  0  0  0  0  0  0  0  0  0
    3.4940   10.6790   18.5730 C   0  0  0  0  0  0  0  0  0  0  0  0
    2.3290   11.2670   18.2130 C   0  0  0  0  0  0  0  0  0  0  0  0
    2.0380   12.5240   18.7210 C   0  0  0  0  0  0  0  0  0  0  0  0
    0.4940   13.1730   18.1930 S   0  0  0  0  0  6  0  0  0  0  0  0
   -0.5590   12.0980   18.9530 N   0  0  0  0  0  0  0  0  0  0  0  0
    0.2860   14.4450   18.8410 O   0  0  0  0  0  0  0  0  0  0  0  0
    0.3800   12.9590   16.7700 O   0  0  0  0  0  0  0  0  0  0  0  0
    2.9050   13.2420   19.5950 C   0  0  0  0  0  0  0  0  0  0  0  0
  1  2  1  0
  2  3  1  0
  2  4  1  0
  2  5  1  0
  5  6  1  0
  6  7  2  0
  6  8  1  0
  8  9  1  0
  9 10  1  0
 10 11  2  0
 11 12  1  0
 12 13  2  0
 13 14  1  0
 14 15  1  0
 15 16  1  0
 15 17  2  0
 15 18  2  0
 14 19  2  0
 19 10  1  0
A    1
 C1 
A    2
 C2 
A    3
 C3 
A    4
 C4 
A    5
 O1 
A    6
 C5 
A    7
 O2 
A    8
 C6 
A    9
 O3 
A   10
 C7 
A   11
 C8 
A   12
 C9 
A   13
 C10
A   14
 C11
A   15
 S1 
A   16
 N1 
A   17
 O4 
A   18
 O5 
A   19
 C12
M  END
>  <ref_url>  (36) 
nan

>  <submitter_name>  (36) 
nan

>  <submitter_email>  (36) 
nan

>  <submitter_institution>  (36) 
nan

>  <generation_date>  (36) 
nan

>  <method>  (36) 
nan

>  <rationale>  (36) 
info info set:sulfonimide_whole;hbond:S87+G127; hydroph_interaction:P107+V84+L131; 

>  <experiment>  (36) 
sulfonimide_whole

>  <cluster_label>  (36) 
17

>  <cluster_rank>  (36) 
2

>  <N_interactions>  (36) 
6

>  <∆∆G>  (36) 
-4.665717

>  <comRMSD>  (36) 
0.972646

>  <ROCS_TanimotoCombo>  (36) 
0.368

>  <ROCS_ShapeTanimoto>  (36) 
0.251

>  <ROCS_ColorTanimoto>  (36) 
0.118

>  <ref_pdb>  (36) 
A71x0310a

>  <ref_mols>  (36) 
A71x0446a,A71x1080a,A71x0812a,A71x0719a,A71x1140a,A71x0528a,A71x0310a

>  <original SMILES>  (36) 
CC(C)(C)OC(=O)COc1cccc(S(N)(=O)=O)c1

>  <origin>  (36) 
A71-ROCS-iter2.sdf

>  <butcher #BAD>  (36) 
2

>  <butcher #GOOD>  (36) 
17

>  <butcher #protein clash>  (36) 
1

>  <butcher #solvent space>  (36) 
1

>  <butcher #pocket>  (36) 
17

>  <butcher #P1>  (36) 
6

>  <butcher #P2>  (36) 
1

>  <butcher #P1'>  (36) 
0

>  <butcher #P2'>  (36) 
0

>  <butcher #P3>  (36) 
3

>  <butcher #P4>  (36) 
2

>  <butcher #P5>  (36) 
4

>  <butcher #P6>  (36) 
1

$$$$
Z56881412
     RDKit          3D

 25 29  0  0  0  0  0  0  0  0999 V2000
   10.3780    9.3670   23.2710 C   0  0  0  0  0  0  0  0  0  0  0  0
    9.3910   10.4020   23.7110 C   0  0  0  0  0  0  0  0  0  0  0  0
    9.6570   11.5710   22.9520 N   0  0  0  0  0  0  0  0  0  0  0  0
    8.8140   12.5810   23.1920 C   0  0  0  0  0  0  0  0  0  0  0  0
    9.1200   13.5720   22.4090 N   0  0  0  0  0  0  0  0  0  0  0  0
    8.2430   14.1500   21.5780 N   0  0  0  0  0  0  0  0  0  0  0  0
    8.9460   14.9980   20.9170 N   0  0  0  0  0  0  0  0  0  0  0  0
   10.2090   14.8900   21.3910 C   0  0  0  0  0  0  0  0  0  0  0  0
   11.3270   15.6840   20.8410 C   0  0  0  0  0  0  0  0  0  0  0  0
   12.7150   15.3930   21.5300 C   0  0  0  0  0  0  0  0  0  0  0  0
   13.8410   16.1020   20.9690 C   0  0  0  0  0  0  0  0  0  0  0  0
   12.6330   14.3530   22.7470 C   0  0  0  0  0  0  0  0  0  0  0  0
   13.8070   13.9810   23.6320 C   0  0  0  0  0  0  0  0  0  0  0  0
   11.5250   13.6970   23.1190 C   0  0  0  0  0  0  0  0  0  0  0  0
   10.3060   14.0170   22.3580 C   0  0  0  0  0  0  0  0  0  0  0  0
    7.7270   12.5270   24.1460 C   0  0  0  0  0  0  0  0  0  0  0  0
    6.7120   13.4730   24.5290 C   0  0  0  0  0  0  0  0  0  0  0  0
    5.8200   12.9420   25.5120 C   0  0  0  0  0  0  0  0  0  0  0  0
    6.2980   11.3420   25.9360 S   0  0  0  0  0  0  0  0  0  0  0  0
    7.6180   11.3270   24.8210 C   0  0  0  0  0  0  0  0  0  0  0  0
    8.4220   10.2390   24.6420 N   0  0  0  0  0  0  0  0  0  0  0  0
    4.6620   13.7220   26.0280 C   0  0  0  0  0  0  0  0  0  0  0  0
    4.1950   14.5820   25.0130 C   0  0  0  0  0  0  0  0  0  0  0  0
    5.1720   15.2620   24.0340 C   0  0  0  0  0  0  0  0  0  0  0  0
    6.5110   14.8700   24.0030 C   0  0  0  0  0  0  0  0  0  0  0  0
  1  2  1  0
  2  3  2  0
  3  4  1  0
  4  5  1  0
  5  6  1  0
  6  7  2  0
  7  8  1  0
  8  9  2  0
  9 10  1  0
 10 11  1  0
 10 12  2  0
 12 13  1  0
 12 14  1  0
 14 15  2  0
  4 16  2  0
 16 17  1  0
 17 18  2  0
 18 19  1  0
 19 20  1  0
 20 21  2  0
 18 22  1  0
 22 23  1  0
 23 24  1  0
 24 25  1  0
 21  2  1  0
 15  5  1  0
 20 16  1  0
 15  8  1  0
 25 17  1  0
A    1
 C1 
A    2
 C2 
A    3
 N1 
A    4
 C3 
A    5
 N2 
A    6
 N3 
A    7
 N4 
A    8
 C4 
A    9
 C5 
A   10
 C6 
A   11
 C7 
A   12
 C8 
A   13
 C9 
A   14
 C10
A   15
 C11
A   16
 C12
A   17
 C13
A   18
 C14
A   19
 S1 
A   20
 C15
A   21
 N5 
A   22
 C16
A   23
 C17
A   24
 C18
A   25
 C19
M  END
>  <ref_url>  (37) 
nan

>  <submitter_name>  (37) 
nan

>  <submitter_email>  (37) 
nan

>  <submitter_institution>  (37) 
nan

>  <generation_date>  (37) 
nan

>  <method>  (37) 
nan

>  <rationale>  (37) 
info info set:screening_whole;hbond:S87+S105+G127; hydroph_interaction:Y89+Y90+V124+H21+E85; 

>  <experiment>  (37) 
screening_whole

>  <cluster_label>  (37) 
9

>  <cluster_rank>  (37) 
2

>  <N_interactions>  (37) 
9

>  <∆∆G>  (37) 
-5.629875

>  <comRMSD>  (37) 
0.818349

>  <ROCS_TanimotoCombo>  (37) 
0.463

>  <ROCS_ShapeTanimoto>  (37) 
0.271

>  <ROCS_ColorTanimoto>  (37) 
0.191

>  <ref_pdb>  (37) 
A71x0310a

>  <ref_mols>  (37) 
A71x0446a,A71x1080a,A71x0812a,A71x0719a,A71x1140a,A71x0528a,A71x0310a

>  <original SMILES>  (37) 
Cc1nc(-n2nnc3cc(C)c(C)cc32)c2c3c(sc2n1)CCCC3

>  <origin>  (37) 
A71-ROCS-iter2.sdf

>  <butcher #BAD>  (37) 
3

>  <butcher #GOOD>  (37) 
22

>  <butcher #protein clash>  (37) 
2

>  <butcher #solvent space>  (37) 
1

>  <butcher #pocket>  (37) 
22

>  <butcher #P1>  (37) 
14

>  <butcher #P2>  (37) 
3

>  <butcher #P1'>  (37) 
1

>  <butcher #P2'>  (37) 
0

>  <butcher #P3>  (37) 
4

>  <butcher #P4>  (37) 
0

>  <butcher #P5>  (37) 
0

>  <butcher #P6>  (37) 
0

$$$$
EN300_26666437
     RDKit          3D

 25 27  0  0  0  0  0  0  0  0999 V2000
    7.3430   15.5160   20.2950 C   0  0  0  0  0  0  0  0  0  0  0  0
    6.4160   14.6150   21.1180 C   0  0  0  0  0  0  0  0  0  0  0  0
    5.8040   15.3630   22.2530 C   0  0  0  0  0  0  0  0  0  0  0  0
    5.1900   13.9110   20.4450 C   0  0  0  0  0  0  0  0  0  0  0  0
    7.3630   13.6690   21.5880 O   0  0  0  0  0  0  0  0  0  0  0  0
    8.6070   14.2400   21.5720 C   0  0  0  0  0  0  0  0  0  0  0  0
    8.8970   15.1460   20.8040 O   0  0  0  0  0  0  0  0  0  0  0  0
    9.5360   13.7040   22.5130 N   0  0  0  0  0  0  0  0  0  0  0  0
   10.8030   14.1280   22.5860 C   0  0  0  0  0  0  0  0  0  0  0  0
   11.5660   13.9220   23.8850 C   0  0  0  0  0  0  0  0  0  0  0  0
   13.0090   14.4330   23.9250 C   0  0  0  0  0  0  0  0  0  0  0  0
   13.4550   15.0870   22.6090 C   0  0  0  0  0  0  0  0  0  0  0  0
   12.6880   15.2210   21.4880 C   0  0  0  0  0  0  0  0  0  0  0  0
   11.3880   14.7520   21.4720 C   0  0  0  0  0  0  0  0  0  0  0  0
    9.1940   12.4870   23.1460 C   0  0  0  0  0  0  0  0  0  0  0  0
    9.8890   11.4070   22.7780 N   0  0  0  0  0  0  0  0  0  0  0  0
    9.5580   10.2720   23.3500 C   0  0  0  0  0  0  0  0  0  0  0  0
   10.4380    8.8580   22.8420 S   0  0  0  0  0  0  0  0  0  0  0  0
    8.6100   10.1160   24.2670 N   0  0  0  0  0  0  0  0  0  0  0  0
    7.9330   11.2000   24.6230 C   0  0  0  0  0  0  0  0  0  0  0  0
    6.9460   11.0700   25.5610 C   0  0  0  0  0  0  0  0  0  0  0  0
    6.0800   12.2430   26.0490 C   0  0  0  0  0  0  0  0  0  0  0  0
    6.3790   13.4810   25.4570 C   0  0  0  0  0  0  0  0  0  0  0  0
    7.3530   13.6200   24.5360 C   0  0  0  0  0  0  0  0  0  0  0  0
    8.1680   12.4480   24.0930 C   0  0  0  0  0  0  0  0  0  0  0  0
  1  2  1  0
  2  3  1  0
  2  4  1  0
  2  5  1  0
  5  6  1  0
  6  7  2  0
  6  8  1  0
  8  9  1  0
  9 10  2  0
 10 11  1  0
 11 12  2  0
 12 13  1  0
 13 14  2  0
  8 15  1  0
 15 16  2  0
 16 17  1  0
 17 18  1  0
 17 19  2  0
 19 20  1  0
 20 21  2  0
 21 22  1  0
 22 23  2  0
 23 24  1  0
 24 25  2  0
 14  9  1  0
 25 15  1  0
 25 20  1  0
A    1
 C1 
A    2
 C2 
A    3
 C3 
A    4
 C4 
A    5
 O1 
A    6
 C5 
A    7
 O2 
A    8
 N1 
A    9
 C6 
A   10
 C7 
A   11
 C8 
A   12
 C9 
A   13
 C10
A   14
 C11
A   15
 C12
A   16
 N2 
A   17
 C13
A   18
 S1 
A   19
 N3 
A   20
 C14
A   21
 C15
A   22
 C16
A   23
 C17
A   24
 C18
A   25
 C19
M  END
>  <ref_url>  (38) 
nan

>  <submitter_name>  (38) 
nan

>  <submitter_email>  (38) 
nan

>  <submitter_institution>  (38) 
nan

>  <generation_date>  (38) 
nan

>  <method>  (38) 
nan

>  <rationale>  (38) 
info info set:bb_whole;hbond:S87+S105+G127; hydroph_interaction:P107+Y89+Y90+V84; 

>  <experiment>  (38) 
bb_whole

>  <cluster_label>  (38) 
3

>  <cluster_rank>  (38) 
2

>  <N_interactions>  (38) 
7

>  <∆∆G>  (38) 
-11.511835

>  <comRMSD>  (38) 
0.6428

>  <ROCS_TanimotoCombo>  (38) 
0.423

>  <ROCS_ShapeTanimoto>  (38) 
0.272

>  <ROCS_ColorTanimoto>  (38) 
0.152

>  <ref_pdb>  (38) 
A71x0310a

>  <ref_mols>  (38) 
A71x0446a,A71x1080a,A71x0812a,A71x0719a,A71x1140a,A71x0528a,A71x0310a

>  <original SMILES>  (38) 
CC(C)(C)OC(=O)N(c1ccccc1)c1nc(S)nc2ccccc12

>  <origin>  (38) 
A71-ROCS-iter2.sdf

>  <butcher #BAD>  (38) 
4

>  <butcher #GOOD>  (38) 
21

>  <butcher #protein clash>  (38) 
3

>  <butcher #solvent space>  (38) 
1

>  <butcher #pocket>  (38) 
21

>  <butcher #P1>  (38) 
16

>  <butcher #P2>  (38) 
2

>  <butcher #P1'>  (38) 
2

>  <butcher #P2'>  (38) 
0

>  <butcher #P3>  (38) 
1

>  <butcher #P4>  (38) 
0

>  <butcher #P5>  (38) 
0

>  <butcher #P6>  (38) 
0

$$$$
EN300_107669
     RDKit          3D

 16 16  0  0  0  0  0  0  0  0999 V2000
   10.5240    9.6150   22.5430 C   0  0  0  0  0  0  0  0  0  0  0  0
    9.6990   10.7260   23.2140 C   0  0  0  0  0  0  0  0  0  0  0  0
    8.7160    9.9820   24.0910 C   0  0  0  0  0  0  0  0  0  0  0  0
    7.6910   10.7520   24.9110 C   0  0  0  0  0  0  0  0  0  0  0  0
    7.7460   12.2730   24.7630 C   0  0  0  0  0  0  0  0  0  0  0  0
    6.5710   13.2360   25.6480 S   0  0  0  0  0  6  0  0  0  0  0  0
    7.3280   13.4690   27.1240 N   0  0  0  0  0  0  0  0  0  0  0  0
    5.4280   12.4020   25.9270 O   0  0  0  0  0  0  0  0  0  0  0  0
    6.4770   14.5370   25.0340 O   0  0  0  0  0  0  0  0  0  0  0  0
    8.7040   12.8930   23.9370 C   0  0  0  0  0  0  0  0  0  0  0  0
    9.7290   12.1320   23.1270 C   0  0  0  0  0  0  0  0  0  0  0  0
   10.6200   12.7800   22.3560 N   0  0  0  0  0  0  0  0  0  0  0  0
   10.4550   13.9360   21.6030 C   0  0  0  0  0  0  0  0  0  0  0  0
    9.2530   14.6830   21.2870 O   0  0  0  0  0  0  0  0  0  0  0  0
   11.6920   14.5740   20.9810 C   0  0  0  0  0  0  0  0  0  0  0  0
   12.5610   15.5790   22.1520 Cl  0  0  0  0  0  0  0  0  0  0  0  0
  1  2  1  0
  2  3  2  0
  3  4  1  0
  4  5  2  0
  5  6  1  0
  6  7  1  0
  6  8  2  0
  6  9  2  0
  5 10  1  0
 10 11  2  0
 11 12  1  0
 12 13  1  0
 13 14  2  0
 13 15  1  0
 15 16  1  0
 11  2  1  0
A    1
 C1 
A    2
 C2 
A    3
 C3 
A    4
 C4 
A    5
 C5 
A    6
 S1 
A    7
 N1 
A    8
 O1 
A    9
 O2 
A   10
 C6 
A   11
 C7 
A   12
 N2 
A   13
 C8 
A   14
 O3 
A   15
 C9 
A   16
CL1 
M  END
>  <ref_url>  (39) 
nan

>  <submitter_name>  (39) 
nan

>  <submitter_email>  (39) 
nan

>  <submitter_institution>  (39) 
nan

>  <generation_date>  (39) 
nan

>  <method>  (39) 
nan

>  <rationale>  (39) 
info info set:sulfonimide_whole;halogenbond:E88; hbond:S87; hydroph_interaction:V124; 

>  <experiment>  (39) 
sulfonimide_whole

>  <cluster_label>  (39) 
7

>  <cluster_rank>  (39) 
2

>  <N_interactions>  (39) 
3

>  <∆∆G>  (39) 
-8.940783

>  <comRMSD>  (39) 
0.405766

>  <ROCS_TanimotoCombo>  (39) 
0.357

>  <ROCS_ShapeTanimoto>  (39) 
0.217

>  <ROCS_ColorTanimoto>  (39) 
0.14

>  <ref_pdb>  (39) 
A71x0310a

>  <ref_mols>  (39) 
A71x0446a,A71x1080a,A71x0812a,A71x0719a,A71x1140a,A71x0528a,A71x0310a

>  <original SMILES>  (39) 
Cc1ccc(S(N)(=O)=O)cc1NC(=O)CCl

>  <origin>  (39) 
A71-ROCS-iter2.sdf

>  <butcher #BAD>  (39) 
1

>  <butcher #GOOD>  (39) 
15

>  <butcher #protein clash>  (39) 
0

>  <butcher #solvent space>  (39) 
1

>  <butcher #pocket>  (39) 
15

>  <butcher #P1>  (39) 
11

>  <butcher #P2>  (39) 
2

>  <butcher #P1'>  (39) 
1

>  <butcher #P2'>  (39) 
0

>  <butcher #P3>  (39) 
1

>  <butcher #P4>  (39) 
0

>  <butcher #P5>  (39) 
0

>  <butcher #P6>  (39) 
0

$$$$
Z3714214241
     RDKit          3D

 17 18  0  0  0  0  0  0  0  0999 V2000
    5.9360   10.8900   27.0200 C   0  0  0  0  0  0  0  0  0  0  0  0
    6.5370   10.3350   25.9100 N   0  0  0  0  0  0  0  0  0  0  0  0
    7.5300   10.8470   25.0580 C   0  0  0  0  0  0  0  0  0  0  0  0
    7.6370   12.2060   24.8280 C   0  0  0  0  0  0  0  0  0  0  0  0
    8.6050   12.7340   23.9840 C   0  0  0  0  0  0  0  0  0  0  0  0
    9.5010   11.8830   23.3440 C   0  0  0  0  0  0  0  0  0  0  0  0
   10.4980   12.4040   22.4910 N   0  0  0  0  0  0  0  0  0  0  0  0
   11.2240   13.5810   22.7060 C   0  0  0  0  0  0  0  0  0  0  0  0
   11.1140   14.0620   23.9590 N   0  0  0  0  0  0  0  0  0  0  0  0
   11.7820   15.1670   24.2430 C   0  0  0  0  0  0  0  0  0  0  0  0
   12.5310   15.8310   23.3900 N   0  0  0  0  0  0  0  0  0  0  0  0
   12.6150   15.3530   22.1790 C   0  0  0  0  0  0  0  0  0  0  0  0
   13.4520   16.0370   21.0770 C   0  0  0  0  0  0  0  0  0  0  0  0
   12.0270   14.2880   21.7690 C   0  0  0  0  0  0  0  0  0  0  0  0
   12.5700   14.1870   19.9630 Br  0  0  0  0  0  0  0  0  0  0  0  0
    9.3410   10.5270   23.6170 C   0  0  0  0  0  0  0  0  0  0  0  0
    8.3920   10.0090   24.4430 N   0  0  0  0  0  0  0  0  0  0  0  0
  1  2  1  0
  2  3  1  0
  3  4  2  0
  4  5  1  0
  5  6  2  0
  6  7  1  0
  7  8  1  0
  8  9  2  0
  9 10  1  0
 10 11  2  0
 11 12  1  0
 12 13  1  0
 12 14  2  0
 14 15  1  0
  6 16  1  0
 16 17  2  0
 17  3  1  0
 14  8  1  0
A    1
 C1 
A    2
 N1 
A    3
 C2 
A    4
 C3 
A    5
 C4 
A    6
 C5 
A    7
 N2 
A    8
 C6 
A    9
 N3 
A   10
 C7 
A   11
 N4 
A   12
 C8 
A   13
 C9 
A   14
 C10
A   15
BR1 
A   16
 C11
A   17
 N5 
M  END
>  <ref_url>  (40) 
nan

>  <submitter_name>  (40) 
nan

>  <submitter_email>  (40) 
nan

>  <submitter_institution>  (40) 
nan

>  <generation_date>  (40) 
nan

>  <method>  (40) 
nan

>  <rationale>  (40) 
info info set:screening_pocket;halogenbond:S125+D39; hbond:S105+S125; hydroph_interaction:Y89+Y90+H21; pistack:H21; 

>  <experiment>  (40) 
screening_pocket

>  <cluster_label>  (40) 
18

>  <cluster_rank>  (40) 
3

>  <N_interactions>  (40) 
8

>  <∆∆G>  (40) 
-3.191017

>  <comRMSD>  (40) 
0.567545

>  <ROCS_TanimotoCombo>  (40) 
0.628

>  <ROCS_ShapeTanimoto>  (40) 
0.229

>  <ROCS_ColorTanimoto>  (40) 
0.399

>  <ref_pdb>  (40) 
A71x0310a

>  <ref_mols>  (40) 
A71x0446a,A71x1080a,A71x0812a,A71x0719a,A71x1140a,A71x0528a,A71x0310a

>  <original SMILES>  (40) 
CNc1ccc(Nc2ncnc(C)c2Br)cn1

>  <origin>  (40) 
A71-ROCS-iter2.sdf

>  <butcher #BAD>  (40) 
4

>  <butcher #GOOD>  (40) 
13

>  <butcher #protein clash>  (40) 
1

>  <butcher #solvent space>  (40) 
3

>  <butcher #pocket>  (40) 
13

>  <butcher #P1>  (40) 
10

>  <butcher #P2>  (40) 
0

>  <butcher #P1'>  (40) 
3

>  <butcher #P2'>  (40) 
0

>  <butcher #P3>  (40) 
0

>  <butcher #P4>  (40) 
0

>  <butcher #P5>  (40) 
0

>  <butcher #P6>  (40) 
0

$$$$
Z2057627275
     RDKit          3D

 19 20  0  0  0  0  0  0  0  0999 V2000
   12.0210   17.3090   21.5810 C   0  0  0  0  0  0  0  0  0  0  0  0
   12.4670   16.4560   22.5790 O   0  0  0  0  0  0  0  0  0  0  0  0
   13.1090   15.5080   21.9590 C   0  0  1  0  0  0  0  0  0  0  0  0
   13.0010   14.2940   22.8060 C   0  0  0  0  0  0  0  0  0  0  0  0
   11.9430   13.5330   22.0830 C   0  0  1  0  0  0  0  0  0  0  0  0
   10.7760   13.2070   23.0280 C   0  0  0  0  0  0  0  0  0  0  0  0
   10.4240   14.1600   24.0360 O   0  0  0  0  0  0  0  0  0  0  0  0
   10.3540   11.9900   22.6590 N   0  0  0  0  0  0  0  0  0  0  0  0
    9.3800   11.6500   23.5020 C   0  0  0  0  0  0  0  0  0  0  0  0
    8.5270   12.7250   24.1010 C   0  0  0  0  0  0  0  0  0  0  0  0
    7.5440   12.3420   24.9780 C   0  0  0  0  0  0  0  0  0  0  0  0
    7.4120   10.8440   25.2570 C   0  0  0  0  0  0  0  0  0  0  0  0
    6.3170   10.4320   26.2360 C   0  0  0  0  0  0  0  0  0  0  0  0
    8.2200    9.8930   24.6700 N   0  0  0  0  0  0  0  0  0  0  0  0
    9.1590   10.3490   23.8270 C   0  0  0  0  0  0  0  0  0  0  0  0
    9.9590    9.4220   23.2510 O   0  0  0  0  0  0  0  0  0  0  0  0
   11.4490   14.1920   20.8700 N   0  0  0  0  0  0  0  0  0  0  0  0
   10.0400   14.6110   20.8360 C   0  0  0  0  0  0  0  0  0  0  0  0
   12.3500   15.3020   20.6680 C   0  0  0  0  0  0  0  0  0  0  0  0
  1  2  1  0
  3  2  1  1
  3  4  1  0
  4  5  1  0
  5  6  1  1
  6  7  2  0
  6  8  1  0
  8  9  1  0
  9 10  2  0
 10 11  1  0
 11 12  2  0
 12 13  1  0
 12 14  1  0
 14 15  2  0
 15 16  1  0
  5 17  1  0
 17 18  1  0
 17 19  1  0
 19  3  1  0
 15  9  1  0
A    1
 C1 
A    2
 O1 
A    3
 C2 
A    4
 C3 
A    5
 C4 
A    6
 C5 
A    7
 O2 
A    8
 N1 
A    9
 C6 
A   10
 C7 
A   11
 C8 
A   12
 C9 
A   13
 C10
A   14
 N2 
A   15
 C11
A   16
 O3 
A   17
 N3 
A   18
 C12
A   19
 C13
M  END
>  <ref_url>  (41) 
nan

>  <submitter_name>  (41) 
nan

>  <submitter_email>  (41) 
nan

>  <submitter_institution>  (41) 
nan

>  <generation_date>  (41) 
nan

>  <method>  (41) 
nan

>  <rationale>  (41) 
info info set:screening_pocket;hbond:S87+S105+S125; saltbridge:D39; 

>  <experiment>  (41) 
screening_pocket

>  <cluster_label>  (41) 
19

>  <cluster_rank>  (41) 
3

>  <N_interactions>  (41) 
4

>  <∆∆G>  (41) 
-2.620226

>  <comRMSD>  (41) 
0.55574

>  <ROCS_TanimotoCombo>  (41) 
0.631

>  <ROCS_ShapeTanimoto>  (41) 
0.248

>  <ROCS_ColorTanimoto>  (41) 
0.383

>  <ref_pdb>  (41) 
A71x0310a

>  <ref_mols>  (41) 
A71x0446a,A71x1080a,A71x0812a,A71x0719a,A71x1140a,A71x0528a,A71x0310a

>  <original SMILES>  (41) 
CO[C@H]1C[C@@H](C(=O)Nc2ccc(C)nc2O)N(C)C1

>  <origin>  (41) 
A71-ROCS-iter2.sdf

>  <butcher #BAD>  (41) 
1

>  <butcher #GOOD>  (41) 
18

>  <butcher #protein clash>  (41) 
1

>  <butcher #solvent space>  (41) 
0

>  <butcher #pocket>  (41) 
18

>  <butcher #P1>  (41) 
12

>  <butcher #P2>  (41) 
3

>  <butcher #P1'>  (41) 
3

>  <butcher #P2'>  (41) 
0

>  <butcher #P3>  (41) 
0

>  <butcher #P4>  (41) 
0

>  <butcher #P5>  (41) 
0

>  <butcher #P6>  (41) 
0

$$$$
EN300_6511692
     RDKit          3D

 15 15  0  0  0  0  0  0  0  0999 V2000
    5.7720    9.0500   28.2760 C   0  0  0  0  0  0  0  0  0  0  0  0
    5.2480    9.7690   27.0240 C   0  0  0  0  0  0  0  0  0  0  0  0
    6.1010   10.9200   26.7740 N   0  0  0  0  0  0  0  0  0  0  0  0
    7.0920   11.1090   25.7680 C   0  0  0  0  0  0  0  0  0  0  0  0
    7.7460   10.1400   25.0650 N   0  0  0  0  0  0  0  0  0  0  0  0
    8.7110   10.4980   24.1540 C   0  0  0  0  0  0  0  0  0  0  0  0
    9.0880   11.9110   23.8800 C   0  0  0  0  0  0  0  0  0  0  0  0
   10.1650   12.1230   22.8780 C   0  0  0  0  0  0  0  0  0  0  0  0
   10.5550   11.2180   22.1900 O   0  0  0  0  0  0  0  0  0  0  0  0
   10.5720   13.4320   22.9250 O   0  0  0  0  0  0  0  0  0  0  0  0
   11.6210   13.8830   22.0370 C   0  0  0  0  0  0  0  0  0  0  0  0
   12.4160   15.0510   22.6700 C   0  0  0  0  0  0  0  0  0  0  0  0
    8.4510   12.9120   24.5430 C   0  0  0  0  0  0  0  0  0  0  0  0
    7.3840   12.5980   25.5590 C   0  0  0  0  0  0  0  0  0  0  0  0
    6.5690   13.8440   26.4240 Cl  0  0  0  0  0  0  0  0  0  0  0  0
  1  2  1  0
  2  3  1  0
  3  4  1  0
  4  5  2  0
  5  6  1  0
  6  7  2  0
  7  8  1  0
  8  9  2  0
  8 10  1  0
 10 11  1  0
 11 12  1  0
  7 13  1  0
 13 14  2  0
 14 15  1  0
 14  4  1  0
A    1
 C1 
A    2
 C2 
A    3
 N1 
A    4
 C3 
A    5
 N2 
A    6
 C4 
A    7
 C5 
A    8
 C6 
A    9
 O1 
A   10
 O2 
A   11
 C7 
A   12
 C8 
A   13
 C9 
A   14
 C10
A   15
CL1 
M  END
>  <ref_url>  (42) 
nan

>  <submitter_name>  (42) 
nan

>  <submitter_email>  (42) 
nan

>  <submitter_institution>  (42) 
nan

>  <generation_date>  (42) 
nan

>  <method>  (42) 
nan

>  <rationale>  (42) 
info info set:bb_densepocket2;hydroph_interaction:P107+E106; 

>  <experiment>  (42) 
bb_densepocket2

>  <cluster_label>  (42) 
4

>  <cluster_rank>  (42) 
3

>  <N_interactions>  (42) 
2

>  <∆∆G>  (42) 
-3.906067

>  <comRMSD>  (42) 
0.909196

>  <ROCS_TanimotoCombo>  (42) 
0.63

>  <ROCS_ShapeTanimoto>  (42) 
0.234

>  <ROCS_ColorTanimoto>  (42) 
0.397

>  <ref_pdb>  (42) 
A71x0310a

>  <ref_mols>  (42) 
A71x0446a,A71x1080a,A71x0812a,A71x0719a,A71x1140a,A71x0528a,A71x0310a

>  <original SMILES>  (42) 
CCNc1ncc(C(=O)OCC)cc1Cl

>  <origin>  (42) 
A71-ROCS-iter2.sdf

>  <butcher #BAD>  (42) 
3

>  <butcher #GOOD>  (42) 
12

>  <butcher #protein clash>  (42) 
1

>  <butcher #solvent space>  (42) 
2

>  <butcher #pocket>  (42) 
12

>  <butcher #P1>  (42) 
11

>  <butcher #P2>  (42) 
0

>  <butcher #P1'>  (42) 
1

>  <butcher #P2'>  (42) 
0

>  <butcher #P3>  (42) 
0

>  <butcher #P4>  (42) 
0

>  <butcher #P5>  (42) 
0

>  <butcher #P6>  (42) 
0

$$$$
Z8820654813
     RDKit          3D

 20 22  0  0  0  0  0  0  0  0999 V2000
   12.4950   15.3390   25.0780 C   0  0  0  0  0  0  0  0  0  0  0  0
   12.4480   15.9540   23.7970 O   0  0  0  0  0  0  0  0  0  0  0  0
   12.8220   15.1200   22.8620 C   0  0  0  0  0  0  0  0  0  0  0  0
   13.9890   15.0360   21.8690 C   0  0  0  0  0  0  0  0  0  0  0  0
   14.0830   13.8660   20.8840 C   0  0  0  0  0  0  0  0  0  0  0  0
   15.1490   13.5660   19.8350 C   0  0  0  0  0  0  0  0  0  0  0  0
   13.1570   12.9980   20.9250 N   0  0  0  0  0  0  0  0  0  0  0  0
   12.1830   13.1060   21.8210 C   0  0  0  0  0  0  0  0  0  0  0  0
   11.9850   14.1110   22.7660 C   0  0  0  0  0  0  0  0  0  0  0  0
   10.7390   13.7380   23.4980 C   0  0  0  0  0  0  0  0  0  0  0  0
   10.4750   12.3890   23.0660 N   0  0  0  0  0  0  0  0  0  0  0  0
    9.5100   11.7310   23.7500 C   0  0  0  0  0  0  0  0  0  0  0  0
    9.3000   10.2230   23.7310 C   0  0  0  0  0  0  0  0  0  0  0  0
    8.3120    9.6570   24.4800 N   0  0  0  0  0  0  0  0  0  0  0  0
    7.5160   10.5460   25.2630 C   0  0  0  0  0  0  0  0  0  0  0  0
    6.4690   10.2290   26.1120 N   0  0  0  0  0  0  0  0  0  0  0  0
    5.9690   11.3860   26.6680 C   0  0  0  0  0  0  0  0  0  0  0  0
    6.7230   12.3960   26.1520 C   0  0  0  0  0  0  0  0  0  0  0  0
    7.6730   11.9020   25.2960 C   0  0  0  0  0  0  0  0  0  0  0  0
    8.6680   12.5290   24.5420 C   0  0  0  0  0  0  0  0  0  0  0  0
  1  2  1  0
  2  3  1  0
  3  4  2  0
  4  5  1  0
  5  6  1  0
  5  7  2  0
  7  8  1  0
  8  9  2  0
  9 10  1  0
 10 11  1  0
 11 12  1  0
 12 13  2  0
 13 14  1  0
 14 15  2  0
 15 16  1  0
 16 17  1  0
 17 18  2  0
 18 19  1  0
 19 20  2  0
  9  3  1  0
 20 12  1  0
 19 15  1  0
A    1
 C1 
A    2
 O1 
A    3
 C2 
A    4
 C3 
A    5
 C4 
A    6
 C5 
A    7
 N1 
A    8
 C6 
A    9
 C7 
A   10
 C8 
A   11
 N2 
A   12
 C9 
A   13
 C10
A   14
 N3 
A   15
 C11
A   16
 N4 
A   17
 C12
A   18
 C13
A   19
 C14
A   20
 C15
M  END
>  <ref_url>  (43) 
nan

>  <submitter_name>  (43) 
nan

>  <submitter_email>  (43) 
nan

>  <submitter_institution>  (43) 
nan

>  <generation_date>  (43) 
nan

>  <method>  (43) 
nan

>  <rationale>  (43) 
info info set:screening_pocket;hbond:S105+S125; hydroph_interaction:P107+Y89+N19; pistack:Y90; 

>  <experiment>  (43) 
screening_pocket

>  <cluster_label>  (43) 
13

>  <cluster_rank>  (43) 
3

>  <N_interactions>  (43) 
6

>  <∆∆G>  (43) 
-0.411458

>  <comRMSD>  (43) 
0.737383

>  <ROCS_TanimotoCombo>  (43) 
0.633

>  <ROCS_ShapeTanimoto>  (43) 
0.241

>  <ROCS_ColorTanimoto>  (43) 
0.393

>  <ref_pdb>  (43) 
A71x0310a

>  <ref_mols>  (43) 
A71x0446a,A71x1080a,A71x0812a,A71x0719a,A71x1140a,A71x0528a,A71x0310a

>  <original SMILES>  (43) 
COc1cc(C)ncc1CNc1cnc2[nH]ccc2c1

>  <origin>  (43) 
A71-ROCS-iter2.sdf

>  <butcher #BAD>  (43) 
5

>  <butcher #GOOD>  (43) 
15

>  <butcher #protein clash>  (43) 
5

>  <butcher #solvent space>  (43) 
0

>  <butcher #pocket>  (43) 
15

>  <butcher #P1>  (43) 
11

>  <butcher #P2>  (43) 
0

>  <butcher #P1'>  (43) 
4

>  <butcher #P2'>  (43) 
0

>  <butcher #P3>  (43) 
0

>  <butcher #P4>  (43) 
0

>  <butcher #P5>  (43) 
0

>  <butcher #P6>  (43) 
0

$$$$
Z910841134
     RDKit          3D

 16 16  0  0  0  0  0  0  0  0999 V2000
   12.7670   14.6630   21.4250 C   0  0  0  0  0  0  0  0  0  0  0  0
   11.6120   15.1810   22.2090 C   0  0  0  0  0  0  0  0  0  0  0  0
   10.9930   14.0060   23.0190 C   0  0  0  0  0  0  0  0  0  0  0  0
   11.3770   13.7740   24.3330 O   0  0  0  0  0  0  0  0  0  0  0  0
   10.0610   13.2620   22.4170 N   0  0  0  0  0  0  0  0  0  0  0  0
    9.4550   14.0370   21.5210 C   0  0  0  0  0  0  0  0  0  0  0  0
    9.2760   12.3490   23.1970 C   0  0  0  0  0  0  0  0  0  0  0  0
    9.7420   10.9510   23.4020 C   0  0  0  0  0  0  0  0  0  0  0  0
   10.8400   10.4550   22.8830 F   0  0  0  0  0  0  0  0  0  0  0  0
    8.9370   10.0890   24.2240 C   0  0  0  0  0  0  0  0  0  0  0  0
    7.6750   10.5340   24.8900 C   0  0  0  0  0  0  0  0  0  0  0  0
    7.2910   11.8400   24.6340 C   0  0  0  0  0  0  0  0  0  0  0  0
    8.0480   12.7060   23.8080 C   0  0  0  0  0  0  0  0  0  0  0  0
    7.4690   13.9460   23.6340 C   0  0  0  0  0  0  0  0  0  0  0  0
    7.3310   14.4900   22.5460 O   0  0  0  0  0  0  0  0  0  0  0  0
    7.0310   14.4980   24.7680 O   0  0  0  0  0  0  0  0  0  0  0  0
  1  2  1  0
  2  3  1  0
  3  4  2  0
  3  5  1  0
  5  6  1  0
  5  7  1  0
  7  8  2  0
  8  9  1  0
  8 10  1  0
 10 11  2  0
 11 12  1  0
 12 13  2  0
 13 14  1  0
 14 15  2  0
 14 16  1  0
 13  7  1  0
A    1
 C1 
A    2
 C2 
A    3
 C3 
A    4
 O1 
A    5
 N1 
A    6
 C4 
A    7
 C5 
A    8
 C6 
A    9
 F1 
A   10
 C7 
A   11
 C8 
A   12
 C9 
A   13
 C10
A   14
 C11
A   15
 O2 
A   16
 O3 
M  END
>  <ref_url>  (44) 
nan

>  <submitter_name>  (44) 
nan

>  <submitter_email>  (44) 
nan

>  <submitter_institution>  (44) 
nan

>  <generation_date>  (44) 
nan

>  <method>  (44) 
nan

>  <rationale>  (44) 
info info set:3d;halogenbond:C110; hbond:G127; 

>  <experiment>  (44) 
3d

>  <cluster_label>  (44) 
2

>  <cluster_rank>  (44) 
3

>  <N_interactions>  (44) 
2

>  <∆∆G>  (44) 
-3.357941

>  <comRMSD>  (44) 
0.748709

>  <ROCS_TanimotoCombo>  (44) 
0.334

>  <ROCS_ShapeTanimoto>  (44) 
0.221

>  <ROCS_ColorTanimoto>  (44) 
0.113

>  <ref_pdb>  (44) 
A71x0310a

>  <ref_mols>  (44) 
A71x0446a,A71x1080a,A71x0812a,A71x0719a,A71x1140a,A71x0528a,A71x0310a

>  <original SMILES>  (44) 
CCC(=O)N(C)c1c(F)cccc1C(=O)O

>  <origin>  (44) 
A71-ROCS-iter2.sdf

>  <butcher #BAD>  (44) 
1

>  <butcher #GOOD>  (44) 
15

>  <butcher #protein clash>  (44) 
0

>  <butcher #solvent space>  (44) 
1

>  <butcher #pocket>  (44) 
15

>  <butcher #P1>  (44) 
14

>  <butcher #P2>  (44) 
1

>  <butcher #P1'>  (44) 
0

>  <butcher #P2'>  (44) 
0

>  <butcher #P3>  (44) 
0

>  <butcher #P4>  (44) 
0

>  <butcher #P5>  (44) 
0

>  <butcher #P6>  (44) 
0

$$$$
Z2060926323
     RDKit          3D

 16 17  0  0  0  0  0  0  0  0999 V2000
   10.4680   10.6910   22.6210 C   0  0  0  0  0  0  0  0  0  0  0  0
    9.4290   10.9860   23.5950 C   0  0  0  0  0  0  0  0  0  0  0  0
    8.7400    9.9420   24.0610 N   0  0  0  0  0  0  0  0  0  0  0  0
    7.7950   10.2510   24.9620 N   0  0  0  0  0  0  0  0  0  0  0  0
    7.9290   11.6020   25.0420 C   0  0  0  0  0  0  0  0  0  0  0  0
    8.9340   12.1270   24.2150 C   0  0  0  0  0  0  0  0  0  0  0  0
    9.2590   13.4770   24.1290 C   0  0  0  0  0  0  0  0  0  0  0  0
   10.4130   13.9000   24.1650 O   0  0  0  0  0  0  0  0  0  0  0  0
    8.1420   14.2720   23.9970 N   0  0  0  0  0  0  0  0  0  0  0  0
    7.7220   15.1660   25.0940 C   0  0  0  0  0  0  0  0  0  0  0  0
    6.3630   15.5590   24.6050 C   0  0  1  0  0  0  0  0  0  0  0  0
    6.4320   16.3900   23.5630 F   0  0  0  0  0  0  0  0  0  0  0  0
    5.8830   14.4890   23.9700 C   0  0  0  0  0  0  0  0  0  0  0  0
    6.9210   13.8080   23.3390 C   0  0  1  0  0  0  0  0  0  0  0  0
    7.0420   13.9270   21.9750 C   0  0  0  0  0  0  0  0  0  0  0  0
    7.3030   15.2180   21.5290 O   0  0  0  0  0  0  0  0  0  0  0  0
  1  2  1  0
  2  3  1  0
  3  4  1  0
  4  5  2  0
  5  6  1  0
  6  7  1  0
  7  8  2  0
  7  9  1  0
  9 10  1  0
 10 11  1  0
 11 12  1  6
 11 13  1  0
 13 14  1  0
 14 15  1  6
 15 16  1  0
  6  2  2  0
 14  9  1  0
A    1
 C1 
A    2
 C2 
A    3
 N1 
A    4
 N2 
A    5
 C3 
A    6
 C4 
A    7
 C5 
A    8
 O1 
A    9
 N3 
A   10
 C6 
A   11
 C7 
A   12
 F1 
A   13
 C8 
A   14
 C9 
A   15
 C10
A   16
 O2 
M  END
>  <ref_url>  (45) 
nan

>  <submitter_name>  (45) 
nan

>  <submitter_email>  (45) 
nan

>  <submitter_institution>  (45) 
nan

>  <generation_date>  (45) 
nan

>  <method>  (45) 
nan

>  <rationale>  (45) 
info info set:3d;halogenbond:E85; hydroph_interaction:P107; 

>  <experiment>  (45) 
3d

>  <cluster_label>  (45) 
1

>  <cluster_rank>  (45) 
3

>  <N_interactions>  (45) 
2

>  <∆∆G>  (45) 
-2.826654

>  <comRMSD>  (45) 
0.923624

>  <ROCS_TanimotoCombo>  (45) 
0.335

>  <ROCS_ShapeTanimoto>  (45) 
0.2

>  <ROCS_ColorTanimoto>  (45) 
0.135

>  <ref_pdb>  (45) 
A71x0310a

>  <ref_mols>  (45) 
A71x0446a,A71x1080a,A71x0812a,A71x0719a,A71x1140a,A71x0528a,A71x0310a

>  <original SMILES>  (45) 
Cc1[nH]ncc1C(=O)N1C[C@@H](F)C[C@H]1CO

>  <origin>  (45) 
A71-ROCS-iter2.sdf

>  <butcher #BAD>  (45) 
1

>  <butcher #GOOD>  (45) 
15

>  <butcher #protein clash>  (45) 
1

>  <butcher #solvent space>  (45) 
0

>  <butcher #pocket>  (45) 
15

>  <butcher #P1>  (45) 
12

>  <butcher #P2>  (45) 
1

>  <butcher #P1'>  (45) 
0

>  <butcher #P2'>  (45) 
0

>  <butcher #P3>  (45) 
2

>  <butcher #P4>  (45) 
0

>  <butcher #P5>  (45) 
0

>  <butcher #P6>  (45) 
0

$$$$
Z4351154733
     RDKit          3D

 16 17  0  0  0  0  0  0  0  0999 V2000
   10.2580    9.3540   21.6710 C   0  0  0  0  0  0  0  0  0  0  0  0
   10.1400    9.1770   23.0100 C   0  0  0  0  0  0  0  0  0  0  0  0
   11.3880    8.5220   23.1950 C   0  0  0  0  0  0  0  0  0  0  0  0
   10.2020   10.3990   23.4310 N   0  0  0  0  0  0  0  0  0  0  0  0
    9.2080   10.9230   24.0680 C   0  0  0  0  0  0  0  0  0  0  0  0
    8.2630   10.1760   24.6890 N   0  0  0  0  0  0  0  0  0  0  0  0
    7.2780   10.8030   25.3570 C   0  0  0  0  0  0  0  0  0  0  0  0
    7.2530   12.3210   25.3770 C   0  0  0  0  0  0  0  0  0  0  0  0
    8.3510   13.0570   24.6370 C   0  0  0  0  0  0  0  0  0  0  0  0
    9.3120   12.3140   23.9990 C   0  0  0  0  0  0  0  0  0  0  0  0
   10.4290   12.7690   23.2620 N   0  0  0  0  0  0  0  0  0  0  0  0
   10.5120   13.8540   22.4520 C   0  0  0  0  0  0  0  0  0  0  0  0
    9.6320   14.6520   22.2750 O   0  0  0  0  0  0  0  0  0  0  0  0
   11.8180   14.0400   21.7180 C   0  0  0  0  0  0  0  0  0  0  0  0
   12.0480   15.0350   20.9700 C   0  0  0  0  0  0  0  0  0  0  0  0
   12.7350   15.2330   22.2260 C   0  0  0  0  0  0  0  0  0  0  0  0
  1  2  1  0
  2  3  1  0
  2  4  1  0
  4  5  1  0
  5  6  2  0
  6  7  1  0
  7  8  2  0
  8  9  1  0
  9 10  2  0
 10 11  1  0
 11 12  1  0
 12 13  2  0
 12 14  1  0
 14 15  1  0
 15 16  1  0
 10  5  1  0
 16 14  1  0
A    1
 C1 
A    2
 C2 
A    3
 C3 
A    4
 N1 
A    5
 C4 
A    6
 N2 
A    7
 C5 
A    8
 C6 
A    9
 C7 
A   10
 C8 
A   11
 N3 
A   12
 C9 
A   13
 O1 
A   14
 C10
A   15
 C11
A   16
 C12
M  END
>  <ref_url>  (46) 
nan

>  <submitter_name>  (46) 
nan

>  <submitter_email>  (46) 
nan

>  <submitter_institution>  (46) 
nan

>  <generation_date>  (46) 
nan

>  <method>  (46) 
nan

>  <rationale>  (46) 
info info set:screening_pocket;hbond:S87+P107; hydroph_interaction:P107+Y90+D109; 

>  <experiment>  (46) 
screening_pocket

>  <cluster_label>  (46) 
11

>  <cluster_rank>  (46) 
3

>  <N_interactions>  (46) 
5

>  <∆∆G>  (46) 
-1.356348

>  <comRMSD>  (46) 
0.826773

>  <ROCS_TanimotoCombo>  (46) 
0.662

>  <ROCS_ShapeTanimoto>  (46) 
0.229

>  <ROCS_ColorTanimoto>  (46) 
0.433

>  <ref_pdb>  (46) 
A71x0310a

>  <ref_mols>  (46) 
A71x0446a,A71x1080a,A71x0812a,A71x0719a,A71x1140a,A71x0528a,A71x0310a

>  <original SMILES>  (46) 
CC(C)Nc1ncccc1NC(=O)C1CC1

>  <origin>  (46) 
A71-ROCS-iter2.sdf

>  <butcher #BAD>  (46) 
2

>  <butcher #GOOD>  (46) 
14

>  <butcher #protein clash>  (46) 
2

>  <butcher #solvent space>  (46) 
0

>  <butcher #pocket>  (46) 
14

>  <butcher #P1>  (46) 
12

>  <butcher #P2>  (46) 
1

>  <butcher #P1'>  (46) 
1

>  <butcher #P2'>  (46) 
0

>  <butcher #P3>  (46) 
0

>  <butcher #P4>  (46) 
0

>  <butcher #P5>  (46) 
0

>  <butcher #P6>  (46) 
0

$$$$
EN300_206684
     RDKit          3D

 15 15  0  0  0  0  0  0  0  0999 V2000
    2.0850   11.3530   19.4250 N   0  0  0  0  0  0  0  0  0  0  0  0
    3.0040   12.6590   18.8890 S   0  0  0  0  0  6  0  0  0  0  0  0
    4.1320   12.0380   18.2270 O   0  0  0  0  0  0  0  0  0  0  0  0
    2.1250   13.5290   18.1530 O   0  0  0  0  0  0  0  0  0  0  0  0
    3.5630   13.4630   20.4020 C   0  0  0  0  0  0  0  0  0  0  0  0
    4.9220   13.5900   20.4600 C   0  0  0  0  0  0  0  0  0  0  0  0
    5.6400   14.4230   21.5690 C   0  0  0  0  0  0  0  0  0  0  0  0
    6.9810   13.8800   21.7300 O   0  0  0  0  0  0  0  0  0  0  0  0
    7.6830   14.1180   22.9890 C   0  0  0  0  0  0  0  0  0  0  0  0
    8.1840   12.7800   23.4170 C   0  0  0  0  0  0  0  0  0  0  0  0
    7.5290   11.9030   24.4070 C   0  0  0  0  0  0  0  0  0  0  0  0
    8.0510   10.5260   24.7290 C   0  0  0  0  0  0  0  0  0  0  0  0
    9.2770   10.0290   24.0210 C   0  0  0  0  0  0  0  0  0  0  0  0
    9.9720   10.9510   23.0340 C   0  0  0  0  0  0  0  0  0  0  0  0
    9.3570   12.3180   22.7960 C   0  0  0  0  0  0  0  0  0  0  0  0
  1  2  1  0
  2  3  2  0
  2  4  2  0
  2  5  1  0
  5  6  1  0
  6  7  1  0
  7  8  1  0
  8  9  1  0
  9 10  1  0
 10 11  2  0
 11 12  1  0
 12 13  2  0
 13 14  1  0
 14 15  2  0
 15 10  1  0
A    1
 N1 
A    2
 S1 
A    3
 O1 
A    4
 O2 
A    5
 C1 
A    6
 C2 
A    7
 C3 
A    8
 O3 
A    9
 C4 
A   10
 C5 
A   11
 C6 
A   12
 C7 
A   13
 C8 
A   14
 C9 
A   15
 C10
M  END
>  <ref_url>  (47) 
nan

>  <submitter_name>  (47) 
nan

>  <submitter_email>  (47) 
nan

>  <submitter_institution>  (47) 
nan

>  <generation_date>  (47) 
nan

>  <method>  (47) 
nan

>  <rationale>  (47) 
info info set:sulfonimide_joint;hbond:G127+T126+G128; hydroph_interaction:V84; 

>  <experiment>  (47) 
sulfonimide_joint

>  <cluster_label>  (47) 
15

>  <cluster_rank>  (47) 
3

>  <N_interactions>  (47) 
4

>  <∆∆G>  (47) 
-6.71242

>  <comRMSD>  (47) 
0.645834

>  <ROCS_TanimotoCombo>  (47) 
0.343

>  <ROCS_ShapeTanimoto>  (47) 
0.207

>  <ROCS_ColorTanimoto>  (47) 
0.136

>  <ref_pdb>  (47) 
A71x0310a

>  <ref_mols>  (47) 
A71x0446a,A71x1080a,A71x0812a,A71x0719a,A71x1140a,A71x0528a,A71x0310a

>  <original SMILES>  (47) 
NS(=O)(=O)CCCOCc1ccccc1

>  <origin>  (47) 
A71-ROCS-iter2.sdf

>  <butcher #BAD>  (47) 
1

>  <butcher #GOOD>  (47) 
14

>  <butcher #protein clash>  (47) 
1

>  <butcher #solvent space>  (47) 
0

>  <butcher #pocket>  (47) 
14

>  <butcher #P1>  (47) 
8

>  <butcher #P2>  (47) 
0

>  <butcher #P1'>  (47) 
0

>  <butcher #P2'>  (47) 
0

>  <butcher #P3>  (47) 
2

>  <butcher #P4>  (47) 
1

>  <butcher #P5>  (47) 
3

>  <butcher #P6>  (47) 
0

$$$$
Z1082767906
     RDKit          3D

 24 26  0  0  0  0  0  0  0  0999 V2000
    4.9740   13.1550   26.2460 C   0  0  0  0  0  0  0  0  0  0  0  0
    6.2450   12.6440   25.6040 C   0  0  0  0  0  0  0  0  0  0  0  0
    6.5370   10.9650   25.5030 S   0  0  0  0  0  0  0  0  0  0  0  0
    7.9720   11.1980   24.6470 C   0  0  0  0  0  0  0  0  0  0  0  0
    8.6770   10.1550   24.1950 N   0  0  0  0  0  0  0  0  0  0  0  0
    9.7780   10.5280   23.5590 C   0  0  0  0  0  0  0  0  0  0  0  0
   10.2280   11.7700   23.3770 N   0  0  0  0  0  0  0  0  0  0  0  0
    9.4680   12.7900   23.8720 C   0  0  0  0  0  0  0  0  0  0  0  0
    9.8630   14.1050   23.7750 O   0  0  0  0  0  0  0  0  0  0  0  0
   10.9850   14.3820   23.0600 C   0  0  0  0  0  0  0  0  0  0  0  0
   12.3250   14.4080   23.7180 C   0  0  0  0  0  0  0  0  0  0  0  0
   13.3080   14.7220   22.8120 C   0  0  0  0  0  0  0  0  0  0  0  0
   13.0640   15.0100   21.3370 C   0  0  0  0  0  0  0  0  0  0  0  0
   11.7930   14.9520   20.8390 C   0  0  0  0  0  0  0  0  0  0  0  0
   10.7730   14.6320   21.7370 C   0  0  0  0  0  0  0  0  0  0  0  0
    9.5410   14.5730   21.2770 O   0  0  0  0  0  0  0  0  0  0  0  0
    9.3150   15.3680   20.1720 C   0  0  0  0  0  0  0  0  0  0  0  0
    7.8560   15.2240   20.1450 C   0  0  0  0  0  0  0  0  0  0  0  0
    7.3840   14.2280   20.9280 F   0  0  0  0  0  0  0  0  0  0  0  0
    7.1980   16.3320   20.4830 F   0  0  0  0  0  0  0  0  0  0  0  0
    7.6760   14.9760   18.8950 F   0  0  0  0  0  0  0  0  0  0  0  0
    8.2710   12.5310   24.5060 C   0  0  0  0  0  0  0  0  0  0  0  0
    7.2760   13.3690   25.0470 C   0  0  0  0  0  0  0  0  0  0  0  0
    7.3640   14.8670   24.9820 C   0  0  0  0  0  0  0  0  0  0  0  0
  1  2  1  0
  2  3  1  0
  3  4  1  0
  4  5  2  0
  5  6  1  0
  6  7  2  0
  7  8  1  0
  8  9  1  0
  9 10  1  0
 10 11  2  0
 11 12  1  0
 12 13  2  0
 13 14  1  0
 14 15  2  0
 15 16  1  0
 16 17  1  0
 17 18  1  0
 18 19  1  0
 18 20  1  0
 18 21  1  0
  8 22  2  0
 22 23  1  0
 23 24  1  0
 23  2  2  0
 22  4  1  0
 15 10  1  0
A    1
 C1 
A    2
 C2 
A    3
 S1 
A    4
 C3 
A    5
 N1 
A    6
 C4 
A    7
 N2 
A    8
 C5 
A    9
 O1 
A   10
 C6 
A   11
 C7 
A   12
 C8 
A   13
 C9 
A   14
 C10
A   15
 C11
A   16
 O2 
A   17
 C12
A   18
 C13
A   19
 F1 
A   20
 F2 
A   21
 F3 
A   22
 C14
A   23
 C15
A   24
 C16
M  END
>  <ref_url>  (48) 
nan

>  <submitter_name>  (48) 
nan

>  <submitter_email>  (48) 
nan

>  <submitter_institution>  (48) 
nan

>  <generation_date>  (48) 
nan

>  <method>  (48) 
nan

>  <rationale>  (48) 
info info set:screening_whole;halogenbond:G127; hbond:S87; hydroph_interaction:P107+Y89+Y90; 

>  <experiment>  (48) 
screening_whole

>  <cluster_label>  (48) 
14

>  <cluster_rank>  (48) 
3

>  <N_interactions>  (48) 
5

>  <∆∆G>  (48) 
-2.424555

>  <comRMSD>  (48) 
0.791127

>  <ROCS_TanimotoCombo>  (48) 
0.462

>  <ROCS_ShapeTanimoto>  (48) 
0.247

>  <ROCS_ColorTanimoto>  (48) 
0.215

>  <ref_pdb>  (48) 
A71x0310a

>  <ref_mols>  (48) 
A71x0446a,A71x1080a,A71x0812a,A71x0719a,A71x1140a,A71x0528a,A71x0310a

>  <original SMILES>  (48) 
Cc1sc2ncnc(Oc3ccccc3OCC(F)(F)F)c2c1C

>  <origin>  (48) 
A71-ROCS-iter2.sdf

>  <butcher #BAD>  (48) 
4

>  <butcher #GOOD>  (48) 
20

>  <butcher #protein clash>  (48) 
3

>  <butcher #solvent space>  (48) 
1

>  <butcher #pocket>  (48) 
20

>  <butcher #P1>  (48) 
12

>  <butcher #P2>  (48) 
5

>  <butcher #P1'>  (48) 
2

>  <butcher #P2'>  (48) 
0

>  <butcher #P3>  (48) 
1

>  <butcher #P4>  (48) 
0

>  <butcher #P5>  (48) 
0

>  <butcher #P6>  (48) 
0

$$$$
EN300_206714
     RDKit          3D

 19 20  0  0  0  0  0  0  0  0999 V2000
    5.2040   14.4080   24.1630 C   0  0  0  0  0  0  0  0  0  0  0  0
    5.7640   14.7430   22.7810 C   0  0  0  0  0  0  0  0  0  0  0  0
    6.1670   16.1470   22.9880 C   0  0  0  0  0  0  0  0  0  0  0  0
    4.7380   14.6940   21.8230 O   0  0  0  0  0  0  0  0  0  0  0  0
    5.1270   13.5300   21.0500 B   0  0  0  0  0  0  0  0  0  0  0  0
    4.0400   12.6720   20.2460 C   0  0  0  0  0  0  0  0  0  0  0  0
    4.3400   11.3330   19.5370 C   0  0  0  0  0  0  0  0  0  0  0  0
    3.4120   10.6100   18.8390 C   0  0  0  0  0  0  0  0  0  0  0  0
    2.0090   11.1330   18.7540 C   0  0  0  0  0  0  0  0  0  0  0  0
    1.7000   12.4320   19.4670 C   0  0  0  0  0  0  0  0  0  0  0  0
    0.0810   13.0170   19.4060 S   0  0  0  0  0  6  0  0  0  0  0  0
   -0.7710   12.2770   18.1170 N   0  0  0  0  0  0  0  0  0  0  0  0
   -0.5820   12.6090   20.6310 O   0  0  0  0  0  0  0  0  0  0  0  0
    0.1070   14.5090   19.2790 O   0  0  0  0  0  0  0  0  0  0  0  0
    2.6150   13.1860   20.1700 C   0  0  0  0  0  0  0  0  0  0  0  0
    6.5060   13.1490   21.4380 O   0  0  0  0  0  0  0  0  0  0  0  0
    6.9890   13.9260   22.2440 C   0  0  0  0  0  0  0  0  0  0  0  0
    7.7480   13.2410   23.3310 C   0  0  0  0  0  0  0  0  0  0  0  0
    7.9610   14.6740   21.3840 C   0  0  0  0  0  0  0  0  0  0  0  0
  1  2  1  0
  2  3  1  0
  2  4  1  0
  4  5  1  0
  5  6  1  0
  6  7  2  0
  7  8  1  0
  8  9  2  0
  9 10  1  0
 10 11  1  0
 11 12  1  0
 11 13  2  0
 11 14  2  0
 10 15  2  0
  5 16  1  0
 16 17  1  0
 17 18  1  0
 17 19  1  0
 17  2  1  0
 15  6  1  0
A    1
 C1 
A    2
 C2 
A    3
 C3 
A    4
 O1 
A    5
 B1 
A    6
 C4 
A    7
 C5 
A    8
 C6 
A    9
 C7 
A   10
 C8 
A   11
 S1 
A   12
 N1 
A   13
 O2 
A   14
 O3 
A   15
 C9 
A   16
 O4 
A   17
 C10
A   18
 C11
A   19
 C12
M  END
>  <ref_url>  (49) 
nan

>  <submitter_name>  (49) 
nan

>  <submitter_email>  (49) 
nan

>  <submitter_institution>  (49) 
nan

>  <generation_date>  (49) 
nan

>  <method>  (49) 
nan

>  <rationale>  (49) 
info info set:sulfonimide_joint;hbond:G127+E85+N129; hydroph_interaction:V84+E85+L100+L131; 

>  <experiment>  (49) 
sulfonimide_joint

>  <cluster_label>  (49) 
17

>  <cluster_rank>  (49) 
3

>  <N_interactions>  (49) 
8

>  <∆∆G>  (49) 
-2.019821

>  <comRMSD>  (49) 
0.713548

>  <ROCS_TanimotoCombo>  (49) 
0.329

>  <ROCS_ShapeTanimoto>  (49) 
0.213

>  <ROCS_ColorTanimoto>  (49) 
0.116

>  <ref_pdb>  (49) 
A71x0310a

>  <ref_mols>  (49) 
A71x0446a,A71x1080a,A71x0812a,A71x0719a,A71x1140a,A71x0528a,A71x0310a

>  <original SMILES>  (49) 
CC1(C)OB(c2cccc(S(N)(=O)=O)c2)OC1(C)C

>  <origin>  (49) 
A71-ROCS-iter2.sdf

>  <butcher #BAD>  (49) 
4

>  <butcher #GOOD>  (49) 
15

>  <butcher #protein clash>  (49) 
3

>  <butcher #solvent space>  (49) 
1

>  <butcher #pocket>  (49) 
15

>  <butcher #P1>  (49) 
2

>  <butcher #P2>  (49) 
1

>  <butcher #P1'>  (49) 
0

>  <butcher #P2'>  (49) 
0

>  <butcher #P3>  (49) 
5

>  <butcher #P4>  (49) 
1

>  <butcher #P5>  (49) 
6

>  <butcher #P6>  (49) 
0

$$$$
Z1624949930
     RDKit          3D

 16 16  0  0  0  0  0  0  0  0999 V2000
    5.6060   15.2800   21.3830 C   0  0  0  0  0  0  0  0  0  0  0  0
    5.9780   15.0690   22.6880 N   0  0  0  0  0  0  0  0  0  0  0  0
    6.9810   14.0560   22.9470 C   0  0  0  0  0  0  0  0  0  0  0  0
    7.7100   13.4560   21.9860 O   0  0  0  0  0  0  0  0  0  0  0  0
    7.2450   13.5610   24.3910 C   0  0  0  0  0  0  0  0  0  0  0  0
    8.0580   12.3560   24.2700 N   0  0  0  0  0  0  0  0  0  0  0  0
    7.8770   11.1100   24.7290 C   0  0  0  0  0  0  0  0  0  0  0  0
    6.6800   10.7290   25.5820 C   0  0  0  0  0  0  0  0  0  0  0  0
    8.8090   10.2530   24.3990 N   0  0  0  0  0  0  0  0  0  0  0  0
    9.7440   10.9860   23.6900 N   0  0  0  0  0  0  0  0  0  0  0  0
   10.9600   10.4350   23.0470 C   0  0  0  0  0  0  0  0  0  0  0  0
   10.4250    9.8190   21.9100 C   0  0  0  0  0  0  0  0  0  0  0  0
   11.9890   11.5280   22.6850 C   0  0  0  0  0  0  0  0  0  0  0  0
   11.5520    9.0860   23.2420 C   0  0  0  0  0  0  0  0  0  0  0  0
    9.4620   12.3440   23.8690 C   0  0  0  0  0  0  0  0  0  0  0  0
   10.1820   13.3230   23.7430 O   0  0  0  0  0  0  0  0  0  0  0  0
  1  2  1  0
  2  3  1  0
  3  4  2  0
  3  5  1  0
  5  6  1  0
  6  7  1  0
  7  8  1  0
  7  9  2  0
  9 10  1  0
 10 11  1  0
 11 12  1  0
 11 13  1  0
 11 14  1  0
 10 15  1  0
 15 16  2  0
 15  6  1  0
A    1
 C1 
A    2
 N1 
A    3
 C2 
A    4
 O1 
A    5
 C3 
A    6
 N2 
A    7
 C4 
A    8
 C5 
A    9
 N3 
A   10
 N4 
A   11
 C6 
A   12
 C7 
A   13
 C8 
A   14
 C9 
A   15
 C10
A   16
 O2 
M  END
>  <ref_url>  (50) 
nan

>  <submitter_name>  (50) 
nan

>  <submitter_email>  (50) 
nan

>  <submitter_institution>  (50) 
nan

>  <generation_date>  (50) 
nan

>  <method>  (50) 
nan

>  <rationale>  (50) 
info info set:3d;hbond:G127+E106; hydroph_interaction:V124; 

>  <experiment>  (50) 
3d

>  <cluster_label>  (50) 
6

>  <cluster_rank>  (50) 
3

>  <N_interactions>  (50) 
3

>  <∆∆G>  (50) 
-6.22998

>  <comRMSD>  (50) 
0.780161

>  <ROCS_TanimotoCombo>  (50) 
0.348

>  <ROCS_ShapeTanimoto>  (50) 
0.21

>  <ROCS_ColorTanimoto>  (50) 
0.138

>  <ref_pdb>  (50) 
A71x0310a

>  <ref_mols>  (50) 
A71x0446a,A71x1080a,A71x0812a,A71x0719a,A71x1140a,A71x0528a,A71x0310a

>  <original SMILES>  (50) 
CNC(=O)Cn1c(C)nn(C(C)(C)C)c1=O

>  <origin>  (50) 
A71-ROCS-iter2.sdf

>  <butcher #BAD>  (50) 
4

>  <butcher #GOOD>  (50) 
12

>  <butcher #protein clash>  (50) 
4

>  <butcher #solvent space>  (50) 
0

>  <butcher #pocket>  (50) 
12

>  <butcher #P1>  (50) 
11

>  <butcher #P2>  (50) 
0

>  <butcher #P1'>  (50) 
0

>  <butcher #P2'>  (50) 
0

>  <butcher #P3>  (50) 
1

>  <butcher #P4>  (50) 
0

>  <butcher #P5>  (50) 
0

>  <butcher #P6>  (50) 
0

$$$$
Z3044709108
     RDKit          3D

 20 21  0  0  0  0  0  0  0  0999 V2000
   10.8170    9.3220   22.9140 C   0  0  0  0  0  0  0  0  0  0  0  0
    9.4370    9.3890   23.2790 N   0  0  0  0  0  0  0  0  0  0  0  0
    8.8020   10.4330   23.9790 C   0  0  0  0  0  0  0  0  0  0  0  0
    7.8730   10.0930   24.9120 N   0  0  0  0  0  0  0  0  0  0  0  0
    7.1800   11.0170   25.6330 C   0  0  0  0  0  0  0  0  0  0  0  0
    6.1200   10.4970   26.6790 C   0  0  0  0  0  0  0  0  0  0  0  0
    7.3700   12.3740   25.4740 C   0  0  0  0  0  0  0  0  0  0  0  0
    8.4020   12.7440   24.4470 C   0  0  0  0  0  0  0  0  0  0  0  0
    9.0780   11.7880   23.7400 C   0  0  0  0  0  0  0  0  0  0  0  0
   10.0830   12.3200   22.7430 C   0  0  0  0  0  0  0  0  0  0  0  0
   10.7290   11.4830   22.2020 O   0  0  0  0  0  0  0  0  0  0  0  0
   10.1620   13.7040   22.5480 N   0  0  0  0  0  0  0  0  0  0  0  0
   11.0770   14.4050   21.6270 C   0  0  0  0  0  0  0  0  0  0  0  0
   12.3790   14.5890   22.3880 C   0  0  0  0  0  0  0  0  0  0  0  0
   13.1820   15.7260   21.8770 C   0  0  0  0  0  0  0  0  0  0  0  0
   14.3050   15.6260   22.7770 C   0  0  0  0  0  0  0  0  0  0  0  0
   14.1680   14.5470   23.7510 C   0  0  0  0  0  0  0  0  0  0  0  0
   15.1640   14.1840   24.8600 C   0  0  0  0  0  0  0  0  0  0  0  0
   13.0030   13.9800   23.4140 N   0  0  0  0  0  0  0  0  0  0  0  0
   12.4490   12.9150   23.9850 C   0  0  0  0  0  0  0  0  0  0  0  0
  1  2  1  0
  2  3  1  0
  3  4  2  0
  4  5  1  0
  5  6  1  0
  5  7  2  0
  7  8  1  0
  8  9  2  0
  9 10  1  0
 10 11  2  0
 10 12  1  0
 12 13  1  0
 13 14  1  0
 14 15  2  0
 15 16  1  0
 16 17  2  0
 17 18  1  0
 17 19  1  0
 19 20  1  0
  9  3  1  0
 19 14  1  0
A    1
 C1 
A    2
 N1 
A    3
 C2 
A    4
 N2 
A    5
 C3 
A    6
 C4 
A    7
 C5 
A    8
 C6 
A    9
 C7 
A   10
 C8 
A   11
 O1 
A   12
 N3 
A   13
 C9 
A   14
 C10
A   15
 C11
A   16
 C12
A   17
 C13
A   18
 C14
A   19
 N4 
A   20
 C15
M  END
>  <ref_url>  (51) 
nan

>  <submitter_name>  (51) 
nan

>  <submitter_email>  (51) 
nan

>  <submitter_institution>  (51) 
nan

>  <generation_date>  (51) 
nan

>  <method>  (51) 
nan

>  <rationale>  (51) 
info info set:screening_pocket;hbond:S87+S105; hydroph_interaction:P107+Y89+Y90+H21; pication:H21; 

>  <experiment>  (51) 
screening_pocket

>  <cluster_label>  (51) 
12

>  <cluster_rank>  (51) 
3

>  <N_interactions>  (51) 
8

>  <∆∆G>  (51) 
-5.743045

>  <comRMSD>  (51) 
0.747566

>  <ROCS_TanimotoCombo>  (51) 
0.643

>  <ROCS_ShapeTanimoto>  (51) 
0.251

>  <ROCS_ColorTanimoto>  (51) 
0.392

>  <ref_pdb>  (51) 
A71x0310a

>  <ref_mols>  (51) 
A71x0446a,A71x1080a,A71x0812a,A71x0719a,A71x1140a,A71x0528a,A71x0310a

>  <original SMILES>  (51) 
CNc1nc(C)ccc1C(=O)NCc1ccc(C)n1C

>  <origin>  (51) 
A71-ROCS-iter2.sdf

>  <butcher #BAD>  (51) 
5

>  <butcher #GOOD>  (51) 
15

>  <butcher #protein clash>  (51) 
5

>  <butcher #solvent space>  (51) 
0

>  <butcher #pocket>  (51) 
15

>  <butcher #P1>  (51) 
12

>  <butcher #P2>  (51) 
0

>  <butcher #P1'>  (51) 
3

>  <butcher #P2'>  (51) 
0

>  <butcher #P3>  (51) 
0

>  <butcher #P4>  (51) 
0

>  <butcher #P5>  (51) 
0

>  <butcher #P6>  (51) 
0

$$$$
EN300_219365
     RDKit          3D

 15 16  0  0  0  0  0  0  0  0999 V2000
    6.0010   15.5660   22.1980 N   0  0  0  0  0  0  0  0  0  0  0  0
    7.3620   14.6140   21.9400 S   0  0  0  0  0  6  0  0  0  0  0  0
    6.8230   13.3830   21.5360 O   0  0  0  0  0  0  0  0  0  0  0  0
    8.3200   15.3020   21.0970 O   0  0  0  0  0  0  0  0  0  0  0  0
    7.8740   14.5020   23.6210 C   0  0  0  0  0  0  0  0  0  0  0  0
    7.4950   13.3810   24.3040 C   0  0  0  0  0  0  0  0  0  0  0  0
    6.4190   13.3420   25.1790 C   0  0  0  0  0  0  0  0  0  0  0  0
    6.1030   12.1630   25.8200 C   0  0  0  0  0  0  0  0  0  0  0  0
    6.8890   10.9120   25.6000 C   0  0  0  0  0  0  0  0  0  0  0  0
    7.9850   10.8630   24.7370 C   0  0  0  0  0  0  0  0  0  0  0  0
    8.3430   12.1430   24.0310 C   0  0  0  0  0  0  0  0  0  0  0  0
    9.2600   12.2700   23.2470 O   0  0  0  0  0  0  0  0  0  0  0  0
   10.0800   11.1170   22.9910 C   0  0  0  0  0  0  0  0  0  0  0  0
    9.5210    9.7500   23.3800 C   0  0  0  0  0  0  0  0  0  0  0  0
    8.6780    9.7180   24.5480 O   0  0  0  0  0  0  0  0  0  0  0  0
  1  2  1  0
  2  3  2  0
  2  4  2  0
  2  5  1  0
  5  6  1  0
  6  7  2  0
  7  8  1  0
  8  9  2  0
  9 10  1  0
 10 11  2  0
 11 12  1  0
 12 13  1  0
 13 14  1  0
 14 15  1  0
 11  6  1  0
 15 10  1  0
A    1
 N1 
A    2
 S1 
A    3
 O1 
A    4
 O2 
A    5
 C1 
A    6
 C2 
A    7
 C3 
A    8
 C4 
A    9
 C5 
A   10
 C6 
A   11
 C7 
A   12
 O3 
A   13
 C8 
A   14
 C9 
A   15
 O4 
M  END
>  <ref_url>  (52) 
nan

>  <submitter_name>  (52) 
nan

>  <submitter_email>  (52) 
nan

>  <submitter_institution>  (52) 
nan

>  <generation_date>  (52) 
nan

>  <method>  (52) 
nan

>  <rationale>  (52) 
info info set:sulfonimide_whole;hbond:S87+G127+A86; 

>  <experiment>  (52) 
sulfonimide_whole

>  <cluster_label>  (52) 
5

>  <cluster_rank>  (52) 
3

>  <N_interactions>  (52) 
3

>  <∆∆G>  (52) 
-4.70811

>  <comRMSD>  (52) 
0.657785

>  <ROCS_TanimotoCombo>  (52) 
0.404

>  <ROCS_ShapeTanimoto>  (52) 
0.209

>  <ROCS_ColorTanimoto>  (52) 
0.196

>  <ref_pdb>  (52) 
A71x0310a

>  <ref_mols>  (52) 
A71x0446a,A71x1080a,A71x0812a,A71x0719a,A71x1140a,A71x0528a,A71x0310a

>  <original SMILES>  (52) 
NS(=O)(=O)Cc1cccc2c1OCCO2

>  <origin>  (52) 
A71-ROCS-iter2.sdf

>  <butcher #BAD>  (52) 
0

>  <butcher #GOOD>  (52) 
15

>  <butcher #protein clash>  (52) 
0

>  <butcher #solvent space>  (52) 
0

>  <butcher #pocket>  (52) 
15

>  <butcher #P1>  (52) 
12

>  <butcher #P2>  (52) 
2

>  <butcher #P1'>  (52) 
0

>  <butcher #P2'>  (52) 
0

>  <butcher #P3>  (52) 
1

>  <butcher #P4>  (52) 
0

>  <butcher #P5>  (52) 
0

>  <butcher #P6>  (52) 
0

$$$$
EN300_107837
     RDKit          3D

 16 16  0  0  0  0  0  0  0  0999 V2000
    7.3600   13.4100   27.1610 N   0  0  0  0  0  0  0  0  0  0  0  0
    6.6230   13.1810   25.6670 S   0  0  0  0  0  6  0  0  0  0  0  0
    6.4580   14.4780   25.0540 O   0  0  0  0  0  0  0  0  0  0  0  0
    5.5060   12.2940   25.9060 O   0  0  0  0  0  0  0  0  0  0  0  0
    7.8040   12.2970   24.7320 C   0  0  0  0  0  0  0  0  0  0  0  0
    7.7940   10.9090   24.8410 C   0  0  0  0  0  0  0  0  0  0  0  0
    8.6730   10.1390   24.1210 C   0  0  0  0  0  0  0  0  0  0  0  0
    9.5910   10.7120   23.2720 C   0  0  0  0  0  0  0  0  0  0  0  0
   10.5480    9.5550   22.4600 Cl  0  0  0  0  0  0  0  0  0  0  0  0
    9.6490   12.1300   23.1480 C   0  0  0  0  0  0  0  0  0  0  0  0
   10.6230   12.6910   22.2740 N   0  0  0  0  0  0  0  0  0  0  0  0
   10.4880   13.9770   21.7340 C   0  0  0  0  0  0  0  0  0  0  0  0
    9.4560   14.6360   21.7560 O   0  0  0  0  0  0  0  0  0  0  0  0
   11.6260   14.4730   21.1230 C   0  0  0  0  0  0  0  0  0  0  0  0
   12.4480   15.5500   22.2640 Cl  0  0  0  0  0  0  0  0  0  0  0  0
    8.7470   12.8820   23.8850 C   0  0  0  0  0  0  0  0  0  0  0  0
  1  2  1  0
  2  3  2  0
  2  4  2  0
  2  5  1  0
  5  6  2  0
  6  7  1  0
  7  8  2  0
  8  9  1  0
  8 10  1  0
 10 11  1  0
 11 12  1  0
 12 13  2  0
 12 14  1  0
 14 15  1  0
 10 16  2  0
 16  5  1  0
A    1
 N1 
A    2
 S1 
A    3
 O1 
A    4
 O2 
A    5
 C1 
A    6
 C2 
A    7
 C3 
A    8
 C4 
A    9
CL1 
A   10
 C5 
A   11
 N2 
A   12
 C6 
A   13
 O3 
A   14
 C7 
A   15
CL2 
A   16
 C8 
M  END
>  <ref_url>  (53) 
nan

>  <submitter_name>  (53) 
nan

>  <submitter_email>  (53) 
nan

>  <submitter_institution>  (53) 
nan

>  <generation_date>  (53) 
nan

>  <method>  (53) 
nan

>  <rationale>  (53) 
info info set:sulfonimide_whole;halogenbond:E88; hbond:S87+S125; 

>  <experiment>  (53) 
sulfonimide_whole

>  <cluster_label>  (53) 
7

>  <cluster_rank>  (53) 
3

>  <N_interactions>  (53) 
3

>  <∆∆G>  (53) 
-6.03163

>  <comRMSD>  (53) 
0.407871

>  <ROCS_TanimotoCombo>  (53) 
0.355

>  <ROCS_ShapeTanimoto>  (53) 
0.215

>  <ROCS_ColorTanimoto>  (53) 
0.14

>  <ref_pdb>  (53) 
A71x0310a

>  <ref_mols>  (53) 
A71x0446a,A71x1080a,A71x0812a,A71x0719a,A71x1140a,A71x0528a,A71x0310a

>  <original SMILES>  (53) 
NS(=O)(=O)c1ccc(Cl)c(NC(=O)CCl)c1

>  <origin>  (53) 
A71-ROCS-iter2.sdf

>  <butcher #BAD>  (53) 
0

>  <butcher #GOOD>  (53) 
16

>  <butcher #protein clash>  (53) 
0

>  <butcher #solvent space>  (53) 
0

>  <butcher #pocket>  (53) 
16

>  <butcher #P1>  (53) 
12

>  <butcher #P2>  (53) 
2

>  <butcher #P1'>  (53) 
1

>  <butcher #P2'>  (53) 
0

>  <butcher #P3>  (53) 
1

>  <butcher #P4>  (53) 
0

>  <butcher #P5>  (53) 
0

>  <butcher #P6>  (53) 
0

$$$$
Z98003105
     RDKit          3D

 21 22  0  0  0  0  0  0  0  0999 V2000
    9.6490    9.6930   23.2220 N   0  0  0  0  0  0  0  0  0  0  0  0
    9.0100   10.4310   23.8690 C   0  0  0  0  0  0  0  0  0  0  0  0
    8.1190    9.9200   24.7250 N   0  0  0  0  0  0  0  0  0  0  0  0
    7.3920   10.7970   25.4530 C   0  0  0  0  0  0  0  0  0  0  0  0
    7.5390   12.1640   25.3400 C   0  0  0  0  0  0  0  0  0  0  0  0
    8.4260   12.7260   24.4920 N   0  0  0  0  0  0  0  0  0  0  0  0
    9.1410   11.8160   23.7770 C   0  0  0  0  0  0  0  0  0  0  0  0
   10.0950   12.2170   22.8640 C   0  0  0  0  0  0  0  0  0  0  0  0
   10.7430   11.3800   22.2840 O   0  0  0  0  0  0  0  0  0  0  0  0
   10.2280   13.5670   22.7150 O   0  0  0  0  0  0  0  0  0  0  0  0
   11.5680   13.7610   22.2430 C   0  0  0  0  0  0  0  0  0  0  0  0
   12.3240   14.6630   22.9820 C   0  0  0  0  0  0  0  0  0  0  0  0
   12.3160   15.8880   22.7960 O   0  0  0  0  0  0  0  0  0  0  0  0
   13.0870   14.0210   23.9320 N   0  0  0  0  0  0  0  0  0  0  0  0
   13.8940   14.6660   24.9610 C   0  0  0  0  0  0  0  0  0  0  0  0
   15.2220   15.2820   24.6110 C   0  0  0  0  0  0  0  0  0  0  0  0
   16.4720   14.4090   24.6080 C   0  0  0  0  0  0  0  0  0  0  0  0
   16.3420   14.2310   23.1220 C   0  0  0  0  0  0  0  0  0  0  0  0
   15.7470   12.9180   22.7430 C   0  0  0  0  0  0  0  0  0  0  0  0
   14.8920   12.4230   23.8380 C   0  0  0  0  0  0  0  0  0  0  0  0
   13.4770   12.7110   23.4810 C   0  0  0  0  0  0  0  0  0  0  0  0
  1  2  1  0
  2  3  2  0
  3  4  1  0
  4  5  2  0
  5  6  1  0
  6  7  2  0
  7  8  1  0
  8  9  2  0
  8 10  1  0
 10 11  1  0
 11 12  1  0
 12 13  2  0
 12 14  1  0
 14 15  1  0
 15 16  1  0
 16 17  1  0
 17 18  1  0
 18 19  1  0
 19 20  1  0
 20 21  1  0
  7  2  1  0
 21 14  1  0
A    1
 N1 
A    2
 C1 
A    3
 N2 
A    4
 C2 
A    5
 C3 
A    6
 N3 
A    7
 C4 
A    8
 C5 
A    9
 O1 
A   10
 O2 
A   11
 C6 
A   12
 C7 
A   13
 O3 
A   14
 N4 
A   15
 C8 
A   16
 C9 
A   17
 C10
A   18
 C11
A   19
 C12
A   20
 C13
A   21
 C14
M  END
>  <ref_url>  (54) 
nan

>  <submitter_name>  (54) 
nan

>  <submitter_email>  (54) 
nan

>  <submitter_institution>  (54) 
nan

>  <generation_date>  (54) 
nan

>  <method>  (54) 
nan

>  <rationale>  (54) 
info info set:screening_pocket;hbond:S87+S105+G127; hydroph_interaction:Y89+H21+L22; 

>  <experiment>  (54) 
screening_pocket

>  <cluster_label>  (54) 
16

>  <cluster_rank>  (54) 
3

>  <N_interactions>  (54) 
7

>  <∆∆G>  (54) 
-3.190615

>  <comRMSD>  (54) 
0.634377

>  <ROCS_TanimotoCombo>  (54) 
0.644

>  <ROCS_ShapeTanimoto>  (54) 
0.231

>  <ROCS_ColorTanimoto>  (54) 
0.413

>  <ref_pdb>  (54) 
A71x0310a

>  <ref_mols>  (54) 
A71x0446a,A71x1080a,A71x0812a,A71x0719a,A71x1140a,A71x0528a,A71x0310a

>  <original SMILES>  (54) 
Nc1nccnc1C(=O)OCC(=O)N1CCCCCCC1

>  <origin>  (54) 
A71-ROCS-iter2.sdf

>  <butcher #BAD>  (54) 
7

>  <butcher #GOOD>  (54) 
14

>  <butcher #protein clash>  (54) 
7

>  <butcher #solvent space>  (54) 
0

>  <butcher #pocket>  (54) 
14

>  <butcher #P1>  (54) 
10

>  <butcher #P2>  (54) 
0

>  <butcher #P1'>  (54) 
4

>  <butcher #P2'>  (54) 
0

>  <butcher #P3>  (54) 
0

>  <butcher #P4>  (54) 
0

>  <butcher #P5>  (54) 
0

>  <butcher #P6>  (54) 
0

$$$$
Z3542299488
     RDKit          3D

 17 18  0  0  0  0  0  0  0  0999 V2000
    6.4820   14.0220   27.0150 C   0  0  0  0  0  0  0  0  0  0  0  0
    6.7170   12.6180   26.5250 C   0  0  0  0  0  0  0  0  0  0  0  0
    6.0120   11.3960   27.0440 C   0  0  0  0  0  0  0  0  0  0  0  0
    6.5400   10.3110   26.3170 N   0  0  0  0  0  0  0  0  0  0  0  0
    7.4680   10.7280   25.4300 C   0  0  0  0  0  0  0  0  0  0  0  0
    8.0410    9.8300   24.6950 N   0  0  0  0  0  0  0  0  0  0  0  0
    8.9280   10.4110   23.8870 C   0  0  0  0  0  0  0  0  0  0  0  0
    9.2070   11.7560   23.8160 C   0  0  0  0  0  0  0  0  0  0  0  0
   10.2430   12.1270   22.8180 C   0  0  0  0  0  0  0  0  0  0  0  0
   10.6770   11.1980   22.1980 O   0  0  0  0  0  0  0  0  0  0  0  0
   10.6170   13.4450   22.6740 N   0  0  0  0  0  0  0  0  0  0  0  0
   12.0120   13.8230   22.4430 C   0  0  2  0  0  0  0  0  0  0  0  0
   12.7590   13.5910   23.5840 C   0  0  0  0  0  0  0  0  0  0  0  0
   12.1060   15.2530   22.1510 C   0  0  0  0  0  0  0  0  0  0  0  0
   12.1750   16.5700   21.9580 N   0  0  0  0  0  0  0  0  0  0  0  0
    8.5550   12.6680   24.6320 C   0  0  0  0  0  0  0  0  0  0  0  0
    7.6170   12.1240   25.5080 C   0  0  0  0  0  0  0  0  0  0  0  0
  1  2  1  0
  2  3  2  0
  3  4  1  0
  4  5  1  0
  5  6  2  0
  6  7  1  0
  7  8  2  0
  8  9  1  0
  9 10  2  0
  9 11  1  0
 11 12  1  0
 12 13  1  1
 12 14  1  0
 14 15  3  0
  8 16  1  0
 16 17  2  0
 17  2  1  0
 17  5  1  0
A    1
 C1 
A    2
 C2 
A    3
 C3 
A    4
 N1 
A    5
 C4 
A    6
 N2 
A    7
 C5 
A    8
 C6 
A    9
 C7 
A   10
 O1 
A   11
 N3 
A   12
 C8 
A   13
 C9 
A   14
 C10
A   15
 N4 
A   16
 C11
A   17
 C12
M  END
>  <ref_url>  (55) 
nan

>  <submitter_name>  (55) 
nan

>  <submitter_email>  (55) 
nan

>  <submitter_institution>  (55) 
nan

>  <generation_date>  (55) 
nan

>  <method>  (55) 
nan

>  <rationale>  (55) 
info info set:screening_pocket;hbond:S87+Y90+E88; hydroph_interaction:P107; 

>  <experiment>  (55) 
screening_pocket

>  <cluster_label>  (55) 
8

>  <cluster_rank>  (55) 
3

>  <N_interactions>  (55) 
5

>  <∆∆G>  (55) 
-4.845029

>  <comRMSD>  (55) 
0.593733

>  <ROCS_TanimotoCombo>  (55) 
0.704

>  <ROCS_ShapeTanimoto>  (55) 
0.259

>  <ROCS_ColorTanimoto>  (55) 
0.444

>  <ref_pdb>  (55) 
A71x0310a

>  <ref_mols>  (55) 
A71x0446a,A71x1080a,A71x0812a,A71x0719a,A71x1140a,A71x0528a,A71x0310a

>  <original SMILES>  (55) 
Cc1c[nH]c2ncc(C(=O)N[C@H](C)C#N)cc12

>  <origin>  (55) 
A71-ROCS-iter2.sdf

>  <butcher #BAD>  (55) 
2

>  <butcher #GOOD>  (55) 
15

>  <butcher #protein clash>  (55) 
1

>  <butcher #solvent space>  (55) 
1

>  <butcher #pocket>  (55) 
15

>  <butcher #P1>  (55) 
12

>  <butcher #P2>  (55) 
1

>  <butcher #P1'>  (55) 
2

>  <butcher #P2'>  (55) 
0

>  <butcher #P3>  (55) 
0

>  <butcher #P4>  (55) 
0

>  <butcher #P5>  (55) 
0

>  <butcher #P6>  (55) 
0

$$$$
Z2001735784
     RDKit          3D

 17 18  0  0  0  0  0  0  0  0999 V2000
   13.9180   15.7970   21.1200 C   0  0  0  0  0  0  0  0  0  0  0  0
   12.7580   15.4260   21.8480 C   0  0  0  0  0  0  0  0  0  0  0  0
   11.6800   14.7320   21.1710 C   0  0  0  0  0  0  0  0  0  0  0  0
   10.7520   14.5860   22.2800 C   0  0  0  0  0  0  0  0  0  0  0  0
    9.4360   13.9270   22.1400 C   0  0  0  0  0  0  0  0  0  0  0  0
    8.4390   14.3810   21.2810 O   0  0  0  0  0  0  0  0  0  0  0  0
    9.2050   12.8500   22.9210 N   0  0  0  0  0  0  0  0  0  0  0  0
   10.2950   12.0800   23.0150 C   0  0  0  0  0  0  0  0  0  0  0  0
    9.8120   10.6930   23.1410 C   0  0  0  0  0  0  0  0  0  0  0  0
   10.5000    9.6920   22.5540 O   0  0  0  0  0  0  0  0  0  0  0  0
    8.6550   10.5520   23.8780 N   0  0  0  0  0  0  0  0  0  0  0  0
    8.0000   11.7560   24.4530 C   0  0  0  0  0  0  0  0  0  0  0  0
    8.3490   13.0340   23.9660 C   0  0  0  0  0  0  0  0  0  0  0  0
    8.6620   14.1170   24.9060 C   0  0  0  0  0  0  0  0  0  0  0  0
    7.1260   13.6840   23.2980 C   0  0  0  0  0  0  0  0  0  0  0  0
   11.2380   15.0810   23.3020 O   0  0  0  0  0  0  0  0  0  0  0  0
   12.5010   15.6310   23.1190 N   0  0  0  0  0  0  0  0  0  0  0  0
  1  2  1  0
  2  3  1  0
  3  4  2  0
  4  5  1  0
  5  6  2  0
  5  7  1  0
  7  8  1  0
  8  9  1  0
  9 10  2  0
  9 11  1  0
 11 12  1  0
 12 13  1  0
 13 14  1  0
 13 15  1  0
  4 16  1  0
 16 17  1  0
 17  2  2  0
 13  7  1  0
A    1
 C1 
A    2
 C2 
A    3
 C3 
A    4
 C4 
A    5
 C5 
A    6
 O1 
A    7
 N1 
A    8
 C6 
A    9
 C7 
A   10
 O2 
A   11
 N2 
A   12
 C8 
A   13
 C9 
A   14
 C10
A   15
 C11
A   16
 O3 
A   17
 N3 
M  END
>  <ref_url>  (56) 
nan

>  <submitter_name>  (56) 
nan

>  <submitter_email>  (56) 
nan

>  <submitter_institution>  (56) 
nan

>  <generation_date>  (56) 
nan

>  <method>  (56) 
nan

>  <rationale>  (56) 
info info set:3d;hbond:S87+S105+G127; hydroph_interaction:P107+Y89+Y90+H21; 

>  <experiment>  (56) 
3d

>  <cluster_label>  (56) 
9

>  <cluster_rank>  (56) 
3

>  <N_interactions>  (56) 
8

>  <∆∆G>  (56) 
-3.325174

>  <comRMSD>  (56) 
0.863595

>  <ROCS_TanimotoCombo>  (56) 
0.349

>  <ROCS_ShapeTanimoto>  (56) 
0.204

>  <ROCS_ColorTanimoto>  (56) 
0.145

>  <ref_pdb>  (56) 
A71x0310a

>  <ref_mols>  (56) 
A71x0446a,A71x1080a,A71x0812a,A71x0719a,A71x1140a,A71x0528a,A71x0310a

>  <original SMILES>  (56) 
Cc1cc(C(=O)N2CC(=O)NCC2(C)C)on1

>  <origin>  (56) 
A71-ROCS-iter2.sdf

>  <butcher #BAD>  (56) 
1

>  <butcher #GOOD>  (56) 
16

>  <butcher #protein clash>  (56) 
1

>  <butcher #solvent space>  (56) 
0

>  <butcher #pocket>  (56) 
16

>  <butcher #P1>  (56) 
11

>  <butcher #P2>  (56) 
2

>  <butcher #P1'>  (56) 
3

>  <butcher #P2'>  (56) 
0

>  <butcher #P3>  (56) 
0

>  <butcher #P4>  (56) 
0

>  <butcher #P5>  (56) 
0

>  <butcher #P6>  (56) 
0

$$$$
Z238750748
     RDKit          3D

 29 33  0  0  0  0  0  0  0  0999 V2000
    2.7340   13.6230   21.1550 C   0  0  0  0  0  0  0  0  0  0  0  0
    3.2110   14.7600   21.8730 O   0  0  0  0  0  0  0  0  0  0  0  0
    4.6090   14.6680   22.1950 C   0  0  0  0  0  0  0  0  0  0  0  0
    5.0850   15.3780   23.4360 C   0  0  0  0  0  0  0  0  0  0  0  0
    6.5810   15.2410   23.7660 C   0  0  0  0  0  0  0  0  0  0  0  0
    7.4030   14.3980   22.7810 C   0  0  0  0  0  0  0  0  0  0  0  0
    8.7820   14.1350   22.9100 N   0  0  0  0  0  0  0  0  0  0  0  0
    9.5880   14.5330   21.8780 C   0  0  0  0  0  0  0  0  0  0  0  0
    9.2340   14.8500   20.7450 O   0  0  0  0  0  0  0  0  0  0  0  0
   11.0420   14.6150   22.2700 C   0  0  0  0  0  0  0  0  0  0  0  0
   11.7990   15.1600   21.2640 C   0  0  0  0  0  0  0  0  0  0  0  0
   13.2680   15.3090   21.5880 C   0  0  0  0  0  0  0  0  0  0  0  0
   13.7110   14.8410   22.9400 C   0  0  0  0  0  0  0  0  0  0  0  0
   12.7680   14.2620   23.9140 C   0  0  0  0  0  0  0  0  0  0  0  0
   11.4430   14.1760   23.5300 C   0  0  0  0  0  0  0  0  0  0  0  0
   10.5340   13.6740   24.4470 N   0  0  0  0  0  0  0  0  0  0  0  0
   10.4030   14.7620   25.4150 C   0  0  0  0  0  0  0  0  0  0  0  0
    9.3080   13.1070   23.8010 C   0  0  2  0  0  0  0  0  0  0  0  0
    9.6940   11.7130   23.1120 C   0  0  0  0  0  0  0  0  0  0  0  0
   10.4930   11.4690   22.2630 O   0  0  0  0  0  0  0  0  0  0  0  0
    8.9300   10.7210   23.6780 N   0  0  0  0  0  0  0  0  0  0  0  0
    8.0990   11.2340   24.6350 C   0  0  0  0  0  0  0  0  0  0  0  0
    7.2200   10.5190   25.3610 C   0  0  0  0  0  0  0  0  0  0  0  0
    6.4440   11.1690   26.3030 C   0  0  0  0  0  0  0  0  0  0  0  0
    6.5810   12.5500   26.4870 C   0  0  0  0  0  0  0  0  0  0  0  0
    7.4950   13.2840   25.7210 C   0  0  0  0  0  0  0  0  0  0  0  0
    8.2540   12.6030   24.7860 C   0  0  0  0  0  0  0  0  0  0  0  0
    6.8040   13.8640   21.7310 C   0  0  0  0  0  0  0  0  0  0  0  0
    5.4910   13.9740   21.4490 C   0  0  0  0  0  0  0  0  0  0  0  0
  1  2  1  0
  2  3  1  0
  3  4  2  0
  4  5  1  0
  5  6  2  0
  6  7  1  0
  7  8  1  0
  8  9  2  0
  8 10  1  0
 10 11  2  0
 11 12  1  0
 12 13  2  0
 13 14  1  0
 14 15  2  0
 15 16  1  0
 16 17  1  0
 18 16  1  1
 18 19  1  0
 19 20  2  0
 19 21  1  0
 21 22  1  0
 22 23  2  0
 23 24  1  0
 24 25  2  0
 25 26  1  0
 26 27  2  0
  6 28  1  0
 28 29  2  0
 29  3  1  0
 18  7  1  0
 27 22  1  0
 15 10  1  0
 27 18  1  0
A    1
 C1 
A    2
 O1 
A    3
 C2 
A    4
 C3 
A    5
 C4 
A    6
 C5 
A    7
 N1 
A    8
 C6 
A    9
 O2 
A   10
 C7 
A   11
 C8 
A   12
 C9 
A   13
 C10
A   14
 C11
A   15
 C12
A   16
 N2 
A   17
 C13
A   18
 C14
A   19
 C15
A   20
 O3 
A   21
 N3 
A   22
 C16
A   23
 C17
A   24
 C18
A   25
 C19
A   26
 C20
A   27
 C21
A   28
 C22
A   29
 C23
M  END
>  <ref_url>  (57) 
nan

>  <submitter_name>  (57) 
nan

>  <submitter_email>  (57) 
nan

>  <submitter_institution>  (57) 
nan

>  <generation_date>  (57) 
nan

>  <method>  (57) 
nan

>  <rationale>  (57) 
info info set:screening_whole;hbond:S87+S105+E85; hydroph_interaction:P107+Y89+Y90+V84+E85; 

>  <experiment>  (57) 
screening_whole

>  <cluster_label>  (57) 
3

>  <cluster_rank>  (57) 
3

>  <N_interactions>  (57) 
10

>  <∆∆G>  (57) 
-5.013019

>  <comRMSD>  (57) 
0.739656

>  <ROCS_TanimotoCombo>  (57) 
0.466

>  <ROCS_ShapeTanimoto>  (57) 
0.291

>  <ROCS_ColorTanimoto>  (57) 
0.175

>  <ref_pdb>  (57) 
A71x0310a

>  <ref_mols>  (57) 
A71x0446a,A71x1080a,A71x0812a,A71x0719a,A71x1140a,A71x0528a,A71x0310a

>  <original SMILES>  (57) 
COc1ccc(N2C(=O)c3ccccc3N(C)[C@]23C(=O)Nc2ccccc23)cc1

>  <origin>  (57) 
A71-ROCS-iter2.sdf

>  <butcher #BAD>  (57) 
2

>  <butcher #GOOD>  (57) 
27

>  <butcher #protein clash>  (57) 
2

>  <butcher #solvent space>  (57) 
0

>  <butcher #pocket>  (57) 
27

>  <butcher #P1>  (57) 
14

>  <butcher #P2>  (57) 
3

>  <butcher #P1'>  (57) 
3

>  <butcher #P2'>  (57) 
0

>  <butcher #P3>  (57) 
7

>  <butcher #P4>  (57) 
0

>  <butcher #P5>  (57) 
0

>  <butcher #P6>  (57) 
0

$$$$
Z168123244
     RDKit          3D

 19 20  0  0  0  0  0  0  0  0999 V2000
    9.3210    9.6200   23.4270 C   0  0  0  0  0  0  0  0  0  0  0  0
    8.7940   10.4750   24.0810 C   0  0  0  0  0  0  0  0  0  0  0  0
    7.8820   10.0740   25.0350 N   0  0  0  0  0  0  0  0  0  0  0  0
    7.2360   11.0090   25.8290 C   0  0  0  0  0  0  0  0  0  0  0  0
    6.2320   10.6010   26.8940 C   0  0  0  0  0  0  0  0  0  0  0  0
    6.0650    9.5290   27.8110 C   0  0  0  0  0  0  0  0  0  0  0  0
    5.0830    9.3060   28.7210 C   0  0  0  0  0  0  0  0  0  0  0  0
    4.0360   10.1070   28.9330 C   0  0  0  0  0  0  0  0  0  0  0  0
    4.0300   11.3440   28.0420 C   0  0  0  0  0  0  0  0  0  0  0  0
    5.1300   11.6190   27.0000 C   0  0  0  0  0  0  0  0  0  0  0  0
    7.5050   12.3780   25.6560 C   0  0  0  0  0  0  0  0  0  0  0  0
    8.4240   12.8180   24.6940 C   0  0  0  0  0  0  0  0  0  0  0  0
    9.0380   11.8430   23.9410 C   0  0  0  0  0  0  0  0  0  0  0  0
    9.9580   12.2310   22.9850 C   0  0  0  0  0  0  0  0  0  0  0  0
   10.4060   11.4180   22.2220 O   0  0  0  0  0  0  0  0  0  0  0  0
   10.2830   13.5570   23.0170 O   0  0  0  0  0  0  0  0  0  0  0  0
   11.2140   13.9390   21.9800 C   0  0  0  0  0  0  0  0  0  0  0  0
   11.8920   15.1960   22.2910 C   0  0  0  0  0  0  0  0  0  0  0  0
   12.3910   16.2060   22.5340 N   0  0  0  0  0  0  0  0  0  0  0  0
  1  2  1  0
  2  3  2  0
  3  4  1  0
  4  5  1  0
  5  6  2  0
  6  7  1  0
  7  8  2  0
  8  9  1  0
  9 10  2  0
  4 11  2  0
 11 12  1  0
 12 13  2  0
 13 14  1  0
 14 15  2  0
 14 16  1  0
 16 17  1  0
 17 18  1  0
 18 19  3  0
 13  2  1  0
 10  5  1  0
A    1
 C1 
A    2
 C2 
A    3
 N1 
A    4
 C3 
A    5
 C4 
A    6
 C5 
A    7
 C6 
A    8
 C7 
A    9
 C8 
A   10
 C9 
A   11
 C10
A   12
 C11
A   13
 C12
A   14
 C13
A   15
 O1 
A   16
 O2 
A   17
 C14
A   18
 C15
A   19
 N2 
M  END
>  <ref_url>  (58) 
nan

>  <submitter_name>  (58) 
nan

>  <submitter_email>  (58) 
nan

>  <submitter_institution>  (58) 
nan

>  <generation_date>  (58) 
nan

>  <method>  (58) 
nan

>  <rationale>  (58) 
info info set:screening_pocket;hydroph_interaction:P107+E106; 

>  <experiment>  (58) 
screening_pocket

>  <cluster_label>  (58) 
4

>  <cluster_rank>  (58) 
4

>  <N_interactions>  (58) 
2

>  <∆∆G>  (58) 
-4.231343

>  <comRMSD>  (58) 
0.969708

>  <ROCS_TanimotoCombo>  (58) 
0.631

>  <ROCS_ShapeTanimoto>  (58) 
0.243

>  <ROCS_ColorTanimoto>  (58) 
0.388

>  <ref_pdb>  (58) 
A71x0310a

>  <ref_mols>  (58) 
A71x0446a,A71x1080a,A71x0812a,A71x0719a,A71x1140a,A71x0528a,A71x0310a

>  <original SMILES>  (58) 
Cc1nc(-c2ccccc2)ccc1C(=O)OCC#N

>  <origin>  (58) 
A71-ROCS-iter2.sdf

>  <butcher #BAD>  (58) 
6

>  <butcher #GOOD>  (58) 
13

>  <butcher #protein clash>  (58) 
1

>  <butcher #solvent space>  (58) 
5

>  <butcher #pocket>  (58) 
13

>  <butcher #P1>  (58) 
11

>  <butcher #P2>  (58) 
0

>  <butcher #P1'>  (58) 
2

>  <butcher #P2'>  (58) 
0

>  <butcher #P3>  (58) 
0

>  <butcher #P4>  (58) 
0

>  <butcher #P5>  (58) 
0

>  <butcher #P6>  (58) 
0

$$$$
EN300_28298107
     RDKit          3D

 23 24  0  0  0  0  0  0  0  0999 V2000
    5.5480   13.3300   26.3270 C   0  0  0  0  0  0  0  0  0  0  0  0
    6.6470   12.7150   25.4620 C   0  0  0  0  0  0  0  0  0  0  0  0
    6.9720   11.0430   25.5700 S   0  0  0  0  0  0  0  0  0  0  0  0
    8.2020   11.1010   24.3950 C   0  0  0  0  0  0  0  0  0  0  0  0
    8.8420    9.9680   24.0470 N   0  0  0  0  0  0  0  0  0  0  0  0
    9.7760   10.1960   23.1360 C   0  0  0  0  0  0  0  0  0  0  0  0
   10.0960   11.3750   22.5790 N   0  0  0  0  0  0  0  0  0  0  0  0
    9.4390   12.5090   22.9220 C   0  0  0  0  0  0  0  0  0  0  0  0
    9.7890   13.7860   22.3040 N   0  0  0  0  0  0  0  0  0  0  0  0
    9.0640   14.6450   21.3550 C   0  0  0  0  0  0  0  0  0  0  0  0
    9.7220   15.5190   20.7880 O   0  0  0  0  0  0  0  0  0  0  0  0
    7.5890   14.6050   20.9630 C   0  0  0  0  0  0  0  0  0  0  0  0
    6.8370   13.5940   21.2810 F   0  0  0  0  0  0  0  0  0  0  0  0
    6.8250   15.5980   21.4460 F   0  0  0  0  0  0  0  0  0  0  0  0
    7.5390   14.8350   19.6450 F   0  0  0  0  0  0  0  0  0  0  0  0
   11.0170   14.2740   22.5470 C   0  0  2  0  0  0  0  0  0  0  0  0
   12.2070   13.9050   21.6940 C   0  0  0  0  0  0  0  0  0  0  0  0
   11.7070   13.8480   23.8250 C   0  0  0  0  0  0  0  0  0  0  0  0
   11.2800   14.0870   24.9370 O   0  0  0  0  0  0  0  0  0  0  0  0
   12.8590   13.1740   23.6900 O   0  0  0  0  0  0  0  0  0  0  0  0
    8.4210   12.3830   23.8940 C   0  0  0  0  0  0  0  0  0  0  0  0
    7.4590   13.3520   24.5530 C   0  0  0  0  0  0  0  0  0  0  0  0
    7.3810   14.8090   24.2680 C   0  0  0  0  0  0  0  0  0  0  0  0
  1  2  1  0
  2  3  1  0
  3  4  1  0
  4  5  2  0
  5  6  1  0
  6  7  2  0
  7  8  1  0
  8  9  1  0
  9 10  1  0
 10 11  2  0
 10 12  1  0
 12 13  1  0
 12 14  1  0
 12 15  1  0
  9 16  1  0
 16 17  1  6
 16 18  1  0
 18 19  2  0
 18 20  1  0
  8 21  2  0
 21 22  1  0
 22 23  1  0
 22  2  2  0
 21  4  1  0
A    1
 C1 
A    2
 C2 
A    3
 S1 
A    4
 C3 
A    5
 N1 
A    6
 C4 
A    7
 N2 
A    8
 C5 
A    9
 N3 
A   10
 C6 
A   11
 O1 
A   12
 C7 
A   13
 F1 
A   14
 F2 
A   15
 F3 
A   16
 C8 
A   17
 C9 
A   18
 C10
A   19
 O2 
A   20
 O3 
A   21
 C11
A   22
 C12
A   23
 C13
M  END
>  <ref_url>  (59) 
nan

>  <submitter_name>  (59) 
nan

>  <submitter_email>  (59) 
nan

>  <submitter_institution>  (59) 
nan

>  <generation_date>  (59) 
nan

>  <method>  (59) 
nan

>  <rationale>  (59) 
info info set:bb_whole;halogenbond:E85+G127; hbond:S87; saltbridge:H21; 

>  <experiment>  (59) 
bb_whole

>  <cluster_label>  (59) 
1

>  <cluster_rank>  (59) 
4

>  <N_interactions>  (59) 
4

>  <∆∆G>  (59) 
-1.607427

>  <comRMSD>  (59) 
0.739467

>  <ROCS_TanimotoCombo>  (59) 
0.416

>  <ROCS_ShapeTanimoto>  (59) 
0.253

>  <ROCS_ColorTanimoto>  (59) 
0.162

>  <ref_pdb>  (59) 
A71x0310a

>  <ref_mols>  (59) 
A71x0446a,A71x1080a,A71x0812a,A71x0719a,A71x1140a,A71x0528a,A71x0310a

>  <original SMILES>  (59) 
Cc1sc2ncnc(N(C(=O)C(F)(F)F)[C@H](C)C(=O)O)c2c1C

>  <origin>  (59) 
A71-ROCS-iter2.sdf

>  <butcher #BAD>  (59) 
3

>  <butcher #GOOD>  (59) 
20

>  <butcher #protein clash>  (59) 
2

>  <butcher #solvent space>  (59) 
1

>  <butcher #pocket>  (59) 
20

>  <butcher #P1>  (59) 
14

>  <butcher #P2>  (59) 
3

>  <butcher #P1'>  (59) 
2

>  <butcher #P2'>  (59) 
0

>  <butcher #P3>  (59) 
1

>  <butcher #P4>  (59) 
0

>  <butcher #P5>  (59) 
0

>  <butcher #P6>  (59) 
0

$$$$
Z1344149943
     RDKit          3D

 23 25  0  0  0  0  0  0  0  0999 V2000
    8.8780   14.0460   23.6770 C   0  0  0  0  0  0  0  0  0  0  0  0
    8.5280   12.6630   24.1790 C   0  0  0  0  0  0  0  0  0  0  0  0
    9.3260   11.5490   23.5990 C   0  0  0  0  0  0  0  0  0  0  0  0
   10.3780   11.9860   22.6080 C   0  0  0  0  0  0  0  0  0  0  0  0
   10.1340   12.9710   21.9420 O   0  0  0  0  0  0  0  0  0  0  0  0
   11.5570   11.3590   22.4800 N   0  0  0  0  0  0  0  0  0  0  0  0
   12.5460   12.2100   22.1820 C   0  0  0  0  0  0  0  0  0  0  0  0
   13.1650   13.0210   23.2660 C   0  0  0  0  0  0  0  0  0  0  0  0
   12.8010   14.3710   23.0560 N   0  0  0  0  0  0  0  0  0  0  0  0
   12.3730   15.1340   24.0570 C   0  0  0  0  0  0  0  0  0  0  0  0
   12.0920   16.2940   23.6080 N   0  0  0  0  0  0  0  0  0  0  0  0
   12.3220   16.3600   22.2740 N   0  0  0  0  0  0  0  0  0  0  0  0
   12.7570   15.1940   21.9420 C   0  0  0  0  0  0  0  0  0  0  0  0
   13.1700   14.7210   20.5470 C   0  0  0  0  0  0  0  0  0  0  0  0
    9.0530   10.2730   23.9940 C   0  0  0  0  0  0  0  0  0  0  0  0
    9.6430    9.2890   23.5730 O   0  0  0  0  0  0  0  0  0  0  0  0
    8.0900   10.0220   24.9030 N   0  0  0  0  0  0  0  0  0  0  0  0
    7.3590   11.0210   25.4560 C   0  0  0  0  0  0  0  0  0  0  0  0
    6.2880   10.6170   26.5010 C   0  0  0  0  0  0  0  0  0  0  0  0
    5.4860   11.7630   27.1010 C   0  0  0  0  0  0  0  0  0  0  0  0
    5.7870   13.1650   26.6400 C   0  0  0  0  0  0  0  0  0  0  0  0
    6.7650   13.4210   25.7010 C   0  0  0  0  0  0  0  0  0  0  0  0
    7.5390   12.3900   25.1190 C   0  0  0  0  0  0  0  0  0  0  0  0
  1  2  1  0
  2  3  2  0
  3  4  1  0
  4  5  2  0
  4  6  1  0
  6  7  1  0
  7  8  1  0
  8  9  1  0
  9 10  1  0
 10 11  2  0
 11 12  1  0
 12 13  2  0
 13 14  1  0
  3 15  1  0
 15 16  1  0
 15 17  2  0
 17 18  1  0
 18 19  2  0
 19 20  1  0
 20 21  2  0
 21 22  1  0
 22 23  2  0
 23  2  1  0
 13  9  1  0
 23 18  1  0
A    1
 C1 
A    2
 C2 
A    3
 C3 
A    4
 C4 
A    5
 O1 
A    6
 N1 
A    7
 C5 
A    8
 C6 
A    9
 N2 
A   10
 C7 
A   11
 N3 
A   12
 N4 
A   13
 C8 
A   14
 C9 
A   15
 C10
A   16
 O2 
A   17
 N5 
A   18
 C11
A   19
 C12
A   20
 C13
A   21
 C14
A   22
 C15
A   23
 C16
M  END
>  <ref_url>  (60) 
nan

>  <submitter_name>  (60) 
nan

>  <submitter_email>  (60) 
nan

>  <submitter_institution>  (60) 
nan

>  <generation_date>  (60) 
nan

>  <method>  (60) 
nan

>  <rationale>  (60) 
info info set:screening_pocket;hbond:S105+G127+P107; hydroph_interaction:Y90; 

>  <experiment>  (60) 
screening_pocket

>  <cluster_label>  (60) 
11

>  <cluster_rank>  (60) 
4

>  <N_interactions>  (60) 
4

>  <∆∆G>  (60) 
-3.041789

>  <comRMSD>  (60) 
0.634156

>  <ROCS_TanimotoCombo>  (60) 
0.643

>  <ROCS_ShapeTanimoto>  (60) 
0.288

>  <ROCS_ColorTanimoto>  (60) 
0.355

>  <ref_pdb>  (60) 
A71x0310a

>  <ref_mols>  (60) 
A71x0446a,A71x1080a,A71x0812a,A71x0719a,A71x1140a,A71x0528a,A71x0310a

>  <original SMILES>  (60) 
Cc1c(C(=O)NCCn2cnnc2C)c(O)nc2ccccc12

>  <origin>  (60) 
A71-ROCS-iter2.sdf

>  <butcher #BAD>  (60) 
7

>  <butcher #GOOD>  (60) 
16

>  <butcher #protein clash>  (60) 
5

>  <butcher #solvent space>  (60) 
2

>  <butcher #pocket>  (60) 
16

>  <butcher #P1>  (60) 
12

>  <butcher #P2>  (60) 
0

>  <butcher #P1'>  (60) 
4

>  <butcher #P2'>  (60) 
0

>  <butcher #P3>  (60) 
0

>  <butcher #P4>  (60) 
0

>  <butcher #P5>  (60) 
0

>  <butcher #P6>  (60) 
0

$$$$
Z108673192
     RDKit          3D

 16 17  0  0  0  0  0  0  0  0999 V2000
   10.9060   11.6490   22.1700 O   0  0  0  0  0  0  0  0  0  0  0  0
   10.4500   12.5640   22.7450 C   0  0  0  0  0  0  0  0  0  0  0  0
    9.3970   12.2210   23.5010 C   0  0  0  0  0  0  0  0  0  0  0  0
    8.3990   13.0200   23.9900 C   0  0  0  0  0  0  0  0  0  0  0  0
    7.4150   12.4160   24.7720 C   0  0  0  0  0  0  0  0  0  0  0  0
    6.1640   13.4370   25.3810 Cl  0  0  0  0  0  0  0  0  0  0  0  0
    7.4410   10.9080   25.0790 C   0  0  0  0  0  0  0  0  0  0  0  0
    8.4620   10.1440   24.5510 C   0  0  0  0  0  0  0  0  0  0  0  0
    9.4330   10.7170   23.7860 C   0  0  0  0  0  0  0  0  0  0  0  0
   10.4170    9.9610   23.2880 F   0  0  0  0  0  0  0  0  0  0  0  0
   10.9910   13.8200   22.7300 N   0  0  0  0  0  0  0  0  0  0  0  0
   11.8240   14.1170   21.5580 C   0  0  0  0  0  0  0  0  0  0  0  0
   12.2400   15.4260   21.4870 C   0  0  0  0  0  0  0  0  0  0  0  0
   12.0770   16.1950   22.6710 O   0  0  0  0  0  0  0  0  0  0  0  0
   12.2490   15.4630   23.8840 C   0  0  0  0  0  0  0  0  0  0  0  0
   11.5580   14.2850   23.9820 C   0  0  0  0  0  0  0  0  0  0  0  0
  1  2  2  0
  2  3  1  0
  3  4  2  0
  4  5  1  0
  5  6  1  0
  5  7  2  0
  7  8  1  0
  8  9  2  0
  9 10  1  0
  2 11  1  0
 11 12  1  0
 12 13  1  0
 13 14  1  0
 14 15  1  0
 15 16  1  0
  9  3  1  0
 16 11  1  0
A    1
 O1 
A    2
 C1 
A    3
 C2 
A    4
 C3 
A    5
 C4 
A    6
CL1 
A    7
 C5 
A    8
 C6 
A    9
 C7 
A   10
 F1 
A   11
 N1 
A   12
 C8 
A   13
 C9 
A   14
 O2 
A   15
 C10
A   16
 C11
M  END
>  <ref_url>  (61) 
nan

>  <submitter_name>  (61) 
nan

>  <submitter_email>  (61) 
nan

>  <submitter_institution>  (61) 
nan

>  <generation_date>  (61) 
nan

>  <method>  (61) 
nan

>  <rationale>  (61) 
info info set:3d;halogenbond:C110; hbond:S87; 

>  <experiment>  (61) 
3d

>  <cluster_label>  (61) 
2

>  <cluster_rank>  (61) 
4

>  <N_interactions>  (61) 
2

>  <∆∆G>  (61) 
-4.200743

>  <comRMSD>  (61) 
0.841773

>  <ROCS_TanimotoCombo>  (61) 
0.303

>  <ROCS_ShapeTanimoto>  (61) 
0.199

>  <ROCS_ColorTanimoto>  (61) 
0.104

>  <ref_pdb>  (61) 
A71x0310a

>  <ref_mols>  (61) 
A71x0446a,A71x1080a,A71x0812a,A71x0719a,A71x1140a,A71x0528a,A71x0310a

>  <original SMILES>  (61) 
O=C(c1cc(Cl)ccc1F)N1CCOCC1

>  <origin>  (61) 
A71-ROCS-iter2.sdf

>  <butcher #BAD>  (61) 
1

>  <butcher #GOOD>  (61) 
15

>  <butcher #protein clash>  (61) 
1

>  <butcher #solvent space>  (61) 
0

>  <butcher #pocket>  (61) 
15

>  <butcher #P1>  (61) 
11

>  <butcher #P2>  (61) 
1

>  <butcher #P1'>  (61) 
3

>  <butcher #P2'>  (61) 
0

>  <butcher #P3>  (61) 
0

>  <butcher #P4>  (61) 
0

>  <butcher #P5>  (61) 
0

>  <butcher #P6>  (61) 
0

$$$$
EN300_1167129
     RDKit          3D

 15 15  0  0  0  0  0  0  0  0999 V2000
    7.7360   15.4570   20.8160 C   0  0  0  0  0  0  0  0  0  0  0  0
    7.0110   14.5990   22.1950 S   0  0  0  0  0  6  0  0  0  0  0  0
    7.6470   14.8140   23.4820 O   0  0  0  0  0  0  0  0  0  0  0  0
    6.9420   13.3090   21.6640 O   0  0  0  0  0  0  0  0  0  0  0  0
    5.4890   15.3450   22.2560 N   0  0  0  0  0  0  0  0  0  0  0  0
    4.3040   14.5950   21.7390 C   0  0  0  0  0  0  0  0  0  0  0  0
    4.5820   13.7860   20.6560 C   0  0  0  0  0  0  0  0  0  0  0  0
    3.5500   12.7830   20.3980 N   0  0  0  0  0  0  0  0  0  0  0  0
    4.0450   11.8760   19.3610 C   0  0  0  0  0  0  0  0  0  0  0  0
    3.0980   10.9600   19.0190 C   0  0  0  0  0  0  0  0  0  0  0  0
    1.8950   11.5400   18.4460 C   0  0  0  0  0  0  0  0  0  0  0  0
    2.2090   12.4500   17.2680 C   0  0  0  0  0  0  0  0  0  0  0  0
    1.0110   12.9930   16.7200 O   0  0  0  0  0  0  0  0  0  0  0  0
    1.2620   12.3490   19.5660 C   0  0  0  0  0  0  0  0  0  0  0  0
    2.2560   13.4020   20.0590 C   0  0  0  0  0  0  0  0  0  0  0  0
  1  2  1  0
  2  3  2  0
  2  4  2  0
  2  5  1  0
  5  6  1  0
  6  7  1  0
  7  8  1  0
  8  9  1  0
  9 10  1  0
 10 11  1  0
 11 12  1  0
 12 13  1  0
 11 14  1  0
 14 15  1  0
 15  8  1  0
A    1
 C1 
A    2
 S1 
A    3
 O1 
A    4
 O2 
A    5
 N1 
A    6
 C2 
A    7
 C3 
A    8
 N2 
A    9
 C4 
A   10
 C5 
A   11
 C6 
A   12
 C7 
A   13
 O3 
A   14
 C8 
A   15
 C9 
M  END
>  <ref_url>  (62) 
nan

>  <submitter_name>  (62) 
nan

>  <submitter_email>  (62) 
nan

>  <submitter_institution>  (62) 
nan

>  <generation_date>  (62) 
nan

>  <method>  (62) 
nan

>  <rationale>  (62) 
info info set:sulfonimide_whole;hbond:G127+F83; hydroph_interaction:L100+L131; 

>  <experiment>  (62) 
sulfonimide_whole

>  <cluster_label>  (62) 
15

>  <cluster_rank>  (62) 
4

>  <N_interactions>  (62) 
5

>  <∆∆G>  (62) 
-4.095492

>  <comRMSD>  (62) 
0.748173

>  <ROCS_TanimotoCombo>  (62) 
0.324

>  <ROCS_ShapeTanimoto>  (62) 
0.179

>  <ROCS_ColorTanimoto>  (62) 
0.144

>  <ref_pdb>  (62) 
A71x0310a

>  <ref_mols>  (62) 
A71x0446a,A71x1080a,A71x0812a,A71x0719a,A71x1140a,A71x0528a,A71x0310a

>  <original SMILES>  (62) 
CS(=O)(=O)NCCN1CCC(CO)CC1

>  <origin>  (62) 
A71-ROCS-iter2.sdf

>  <butcher #BAD>  (62) 
3

>  <butcher #GOOD>  (62) 
12

>  <butcher #protein clash>  (62) 
2

>  <butcher #solvent space>  (62) 
1

>  <butcher #pocket>  (62) 
12

>  <butcher #P1>  (62) 
2

>  <butcher #P2>  (62) 
0

>  <butcher #P1'>  (62) 
0

>  <butcher #P2'>  (62) 
0

>  <butcher #P3>  (62) 
5

>  <butcher #P4>  (62) 
1

>  <butcher #P5>  (62) 
2

>  <butcher #P6>  (62) 
2

$$$$
Z52596195
     RDKit          3D

 27 30  0  0  0  0  0  0  0  0999 V2000
    5.0240   13.6280   26.8630 C   0  0  0  0  0  0  0  0  0  0  0  0
    5.9110   13.1370   26.2190 C   0  0  0  0  0  0  0  0  0  0  0  0
    6.2940   11.4710   26.2610 S   0  0  0  0  0  0  0  0  0  0  0  0
    7.5420   11.7200   25.1300 C   0  0  0  0  0  0  0  0  0  0  0  0
    8.3050   10.7130   24.6820 N   0  0  0  0  0  0  0  0  0  0  0  0
    9.2180   11.1420   23.7920 C   0  0  0  0  0  0  0  0  0  0  0  0
   10.1280   10.4320   23.1190 C   0  0  0  0  0  0  0  0  0  0  0  0
    9.7230    9.1490   22.7350 N   0  0  0  0  0  0  0  0  0  0  0  0
   10.3250    9.0440   21.6480 C   0  0  0  0  0  0  0  0  0  0  0  0
   10.0410    7.8560   21.2440 C   0  0  0  0  0  0  0  0  0  0  0  0
   10.8910    7.4630   22.1720 C   0  0  0  0  0  0  0  0  0  0  0  0
   10.5380    8.3480   23.2750 C   0  0  0  0  0  0  0  0  0  0  0  0
    9.3470   12.3860   23.4280 N   0  0  0  0  0  0  0  0  0  0  0  0
    8.7130   13.2230   23.8030 C   0  0  0  0  0  0  0  0  0  0  0  0
    9.0580   14.4190   23.2600 O   0  0  0  0  0  0  0  0  0  0  0  0
   10.3830   14.4730   22.8410 C   0  0  0  0  0  0  0  0  0  0  0  0
   11.3780   14.2330   23.8150 C   0  0  0  0  0  0  0  0  0  0  0  0
   12.7280   14.3010   23.4660 C   0  0  0  0  0  0  0  0  0  0  0  0
   13.0400   14.6070   22.1510 C   0  0  0  0  0  0  0  0  0  0  0  0
   12.0700   14.8340   21.1960 C   0  0  0  0  0  0  0  0  0  0  0  0
   10.7270   14.7750   21.5090 C   0  0  0  0  0  0  0  0  0  0  0  0
    9.6800   15.0370   20.4750 C   0  0  0  0  0  0  0  0  0  0  0  0
   10.1090   15.5710   19.2850 N   0  0  0  0  0  0  0  0  0  0  0  0
    8.5040   14.7920   20.6800 O   0  0  0  0  0  0  0  0  0  0  0  0
    7.6830   13.0320   24.7270 C   0  0  0  0  0  0  0  0  0  0  0  0
    6.7500   13.8370   25.3510 C   0  0  0  0  0  0  0  0  0  0  0  0
    6.6800   15.3110   25.0860 C   0  0  0  0  0  0  0  0  0  0  0  0
  1  2  1  0
  2  3  1  0
  3  4  1  0
  4  5  2  0
  5  6  1  0
  6  7  1  0
  7  8  1  0
  8  9  1  0
  9 10  1  0
 10 11  1  0
 11 12  1  0
  6 13  2  0
 13 14  1  0
 14 15  1  0
 15 16  1  0
 16 17  2  0
 17 18  1  0
 18 19  2  0
 19 20  1  0
 20 21  2  0
 21 22  1  0
 22 23  1  0
 22 24  2  0
 14 25  2  0
 25 26  1  0
 26 27  1  0
 26  2  2  0
 25  4  1  0
 12  8  1  0
 21 16  1  0
A    1
 C1 
A    2
 C2 
A    3
 S1 
A    4
 C3 
A    5
 N1 
A    6
 C4 
A    7
 C5 
A    8
 N2 
A    9
 C6 
A   10
 C7 
A   11
 C8 
A   12
 C9 
A   13
 N3 
A   14
 C10
A   15
 O1 
A   16
 C11
A   17
 C12
A   18
 C13
A   19
 C14
A   20
 C15
A   21
 C16
A   22
 C17
A   23
 N4 
A   24
 O2 
A   25
 C18
A   26
 C19
A   27
 C20
M  END
>  <ref_url>  (63) 
nan

>  <submitter_name>  (63) 
nan

>  <submitter_email>  (63) 
nan

>  <submitter_institution>  (63) 
nan

>  <generation_date>  (63) 
nan

>  <method>  (63) 
nan

>  <rationale>  (63) 
info info set:screening_whole;hbond:S87+G127+Q95; hydroph_interaction:Y90+V124+D109+V132; pistack:H21; 

>  <experiment>  (63) 
screening_whole

>  <cluster_label>  (63) 
18

>  <cluster_rank>  (63) 
4

>  <N_interactions>  (63) 
8

>  <∆∆G>  (63) 
-0.008227

>  <comRMSD>  (63) 
0.993976

>  <ROCS_TanimotoCombo>  (63) 
0.461

>  <ROCS_ShapeTanimoto>  (63) 
0.272

>  <ROCS_ColorTanimoto>  (63) 
0.189

>  <ref_pdb>  (63) 
A71x0310a

>  <ref_mols>  (63) 
A71x0446a,A71x1080a,A71x0812a,A71x0719a,A71x1140a,A71x0528a,A71x0310a

>  <original SMILES>  (63) 
Cc1sc2nc(CN3CCCC3)nc(Oc3ccccc3C(N)=O)c2c1C

>  <origin>  (63) 
A71-ROCS-iter2.sdf

>  <butcher #BAD>  (63) 
5

>  <butcher #GOOD>  (63) 
22

>  <butcher #protein clash>  (63) 
4

>  <butcher #solvent space>  (63) 
1

>  <butcher #pocket>  (63) 
22

>  <butcher #P1>  (63) 
14

>  <butcher #P2>  (63) 
5

>  <butcher #P1'>  (63) 
2

>  <butcher #P2'>  (63) 
0

>  <butcher #P3>  (63) 
1

>  <butcher #P4>  (63) 
0

>  <butcher #P5>  (63) 
0

>  <butcher #P6>  (63) 
0

$$$$
Z55729775
     RDKit          3D

 21 24  0  0  0  0  0  0  0  0999 V2000
    8.2860    9.1440   24.4150 O   0  0  0  0  0  0  0  0  0  0  0  0
    8.6420   10.2380   24.1550 C   0  0  0  0  0  0  0  0  0  0  0  0
    9.7250   10.4670   23.4190 N   0  0  0  0  0  0  0  0  0  0  0  0
    9.9670   11.6410   22.7510 N   0  0  0  0  0  0  0  0  0  0  0  0
    9.2250   12.6680   23.0120 C   0  0  0  0  0  0  0  0  0  0  0  0
    9.6540   13.8700   22.2070 C   0  0  0  0  0  0  0  0  0  0  0  0
    8.9950   14.4960   21.1910 N   0  0  0  0  0  0  0  0  0  0  0  0
    9.8020   15.5200   20.7710 N   0  0  0  0  0  0  0  0  0  0  0  0
   10.8870   15.4940   21.5310 C   0  0  0  0  0  0  0  0  0  0  0  0
   10.7910   14.4710   22.4110 N   0  0  0  0  0  0  0  0  0  0  0  0
   11.7210   14.1260   23.3490 C   0  0  0  0  0  0  0  0  0  0  0  0
   13.0770   13.8250   22.7580 C   0  0  0  0  0  0  0  0  0  0  0  0
   13.6170   15.2370   22.6040 C   0  0  0  0  0  0  0  0  0  0  0  0
   13.1240   15.6630   21.2360 C   0  0  0  0  0  0  0  0  0  0  0  0
   11.9720   16.3540   21.5000 C   0  0  0  0  0  0  0  0  0  0  0  0
    8.1210   12.6580   24.0120 C   0  0  0  0  0  0  0  0  0  0  0  0
    7.3680   13.7790   24.3940 C   0  0  0  0  0  0  0  0  0  0  0  0
    6.3620   13.6330   25.3440 C   0  0  0  0  0  0  0  0  0  0  0  0
    6.0680   12.2850   25.9750 C   0  0  0  0  0  0  0  0  0  0  0  0
    6.8490   11.2130   25.5540 C   0  0  0  0  0  0  0  0  0  0  0  0
    7.8500   11.3950   24.5920 C   0  0  0  0  0  0  0  0  0  0  0  0
  1  2  2  0
  2  3  1  0
  3  4  1  0
  4  5  2  0
  5  6  1  0
  6  7  2  0
  7  8  1  0
  8  9  2  0
  9 10  1  0
 10 11  1  0
 11 12  1  0
 12 13  1  0
 13 14  1  0
 14 15  1  0
  5 16  1  0
 16 17  2  0
 17 18  1  0
 18 19  2  0
 19 20  1  0
 20 21  2  0
 21  2  1  0
 10  6  1  0
 21 16  1  0
 15  9  1  0
A    1
 O1 
A    2
 C1 
A    3
 N1 
A    4
 N2 
A    5
 C2 
A    6
 C3 
A    7
 N3 
A    8
 N4 
A    9
 C4 
A   10
 N5 
A   11
 C5 
A   12
 C6 
A   13
 C7 
A   14
 C8 
A   15
 C9 
A   16
 C10
A   17
 C11
A   18
 C12
A   19
 C13
A   20
 C14
A   21
 C15
M  END
>  <ref_url>  (64) 
nan

>  <submitter_name>  (64) 
nan

>  <submitter_email>  (64) 
nan

>  <submitter_institution>  (64) 
nan

>  <generation_date>  (64) 
nan

>  <method>  (64) 
nan

>  <rationale>  (64) 
info info set:screening_whole;hbond:S87+E106; hydroph_interaction:Y89+Y90; 

>  <experiment>  (64) 
screening_whole

>  <cluster_label>  (64) 
6

>  <cluster_rank>  (64) 
4

>  <N_interactions>  (64) 
4

>  <∆∆G>  (64) 
-4.380585

>  <comRMSD>  (64) 
0.438316

>  <ROCS_TanimotoCombo>  (64) 
0.459

>  <ROCS_ShapeTanimoto>  (64) 
0.253

>  <ROCS_ColorTanimoto>  (64) 
0.206

>  <ref_pdb>  (64) 
A71x0310a

>  <ref_mols>  (64) 
A71x0446a,A71x1080a,A71x0812a,A71x0719a,A71x1140a,A71x0528a,A71x0310a

>  <original SMILES>  (64) 
O=c1[nH]nc(-c2nnc3n2CCCCC3)c2ccccc12

>  <origin>  (64) 
A71-ROCS-iter2.sdf

>  <butcher #BAD>  (64) 
2

>  <butcher #GOOD>  (64) 
19

>  <butcher #protein clash>  (64) 
1

>  <butcher #solvent space>  (64) 
1

>  <butcher #pocket>  (64) 
19

>  <butcher #P1>  (64) 
13

>  <butcher #P2>  (64) 
4

>  <butcher #P1'>  (64) 
2

>  <butcher #P2'>  (64) 
0

>  <butcher #P3>  (64) 
0

>  <butcher #P4>  (64) 
0

>  <butcher #P5>  (64) 
0

>  <butcher #P6>  (64) 
0

$$$$
Z1343739145
     RDKit          3D

 24 26  0  0  0  0  0  0  0  0999 V2000
   10.6870   15.1450   20.5190 C   0  0  0  0  0  0  0  0  0  0  0  0
   11.6780   15.4050   21.6300 C   0  0  0  0  0  0  0  0  0  0  0  0
   12.1660   16.5620   21.9390 N   0  0  0  0  0  0  0  0  0  0  0  0
   12.9830   16.2590   22.9980 O   0  0  0  0  0  0  0  0  0  0  0  0
   13.0040   14.9610   23.3320 C   0  0  0  0  0  0  0  0  0  0  0  0
   13.8710   14.3800   24.5310 C   0  0  0  0  0  0  0  0  0  0  0  0
   12.2160   14.3960   22.5100 C   0  0  0  0  0  0  0  0  0  0  0  0
   11.9310   13.0480   22.4870 C   0  0  0  0  0  0  0  0  0  0  0  0
   10.6060   12.9110   22.8730 N   0  0  0  0  0  0  0  0  0  0  0  0
   10.4840   13.5090   24.1720 C   0  0  0  0  0  0  0  0  0  0  0  0
    9.9750   11.7270   22.8080 C   0  0  0  0  0  0  0  0  0  0  0  0
   10.2530   10.7890   22.0910 O   0  0  0  0  0  0  0  0  0  0  0  0
    8.8750   11.5440   23.7460 C   0  0  0  0  0  0  0  0  0  0  0  0
    8.7230   10.1770   24.2410 C   0  0  0  0  0  0  0  0  0  0  0  0
    9.6480    9.2390   23.6890 O   0  0  0  0  0  0  0  0  0  0  0  0
    7.8190    9.8310   25.1150 N   0  0  0  0  0  0  0  0  0  0  0  0
    6.9840   10.7560   25.5900 C   0  0  0  0  0  0  0  0  0  0  0  0
    5.9250   10.3160   26.6610 C   0  0  0  0  0  0  0  0  0  0  0  0
    4.9670   11.4280   27.1790 C   0  0  0  0  0  0  0  0  0  0  0  0
    5.2130   12.8050   26.5430 C   0  0  0  0  0  0  0  0  0  0  0  0
    6.1620   13.1120   25.6150 C   0  0  0  0  0  0  0  0  0  0  0  0
    7.0420   12.1920   25.1220 C   0  0  0  0  0  0  0  0  0  0  0  0
    8.0200   12.5370   24.1780 C   0  0  0  0  0  0  0  0  0  0  0  0
    8.1150   13.9440   23.6800 C   0  0  0  0  0  0  0  0  0  0  0  0
  1  2  1  0
  2  3  2  0
  3  4  1  0
  4  5  1  0
  5  6  1  0
  5  7  2  0
  7  8  1  0
  8  9  1  0
  9 10  1  0
  9 11  1  0
 11 12  2  0
 11 13  1  0
 13 14  2  0
 14 15  1  0
 14 16  1  0
 16 17  2  0
 17 18  1  0
 18 19  2  0
 19 20  1  0
 20 21  2  0
 21 22  1  0
 22 23  2  0
 23 24  1  0
  7  2  1  0
 23 13  1  0
 22 17  1  0
A    1
 C1 
A    2
 C2 
A    3
 N1 
A    4
 O1 
A    5
 C3 
A    6
 C4 
A    7
 C5 
A    8
 C6 
A    9
 N2 
A   10
 C7 
A   11
 C8 
A   12
 O2 
A   13
 C9 
A   14
 C10
A   15
 O3 
A   16
 N3 
A   17
 C11
A   18
 C12
A   19
 C13
A   20
 C14
A   21
 C15
A   22
 C16
A   23
 C17
A   24
 C18
M  END
>  <ref_url>  (65) 
nan

>  <submitter_name>  (65) 
nan

>  <submitter_email>  (65) 
nan

>  <submitter_institution>  (65) 
nan

>  <generation_date>  (65) 
nan

>  <method>  (65) 
nan

>  <rationale>  (65) 
info info set:screening_pocket;hbond:S87+S105+Y90; hydroph_interaction:P107+Y89+Y90; pication:H21; 

>  <experiment>  (65) 
screening_pocket

>  <cluster_label>  (65) 
12

>  <cluster_rank>  (65) 
4

>  <N_interactions>  (65) 
7

>  <∆∆G>  (65) 
-2.951507

>  <comRMSD>  (65) 
0.793115

>  <ROCS_TanimotoCombo>  (65) 
0.656

>  <ROCS_ShapeTanimoto>  (65) 
0.299

>  <ROCS_ColorTanimoto>  (65) 
0.357

>  <ref_pdb>  (65) 
A71x0310a

>  <ref_mols>  (65) 
A71x0446a,A71x1080a,A71x0812a,A71x0719a,A71x1140a,A71x0528a,A71x0310a

>  <original SMILES>  (65) 
Cc1noc(C)c1CN(C)C(=O)c1c(O)nc2ccccc2c1C

>  <origin>  (65) 
A71-ROCS-iter2.sdf

>  <butcher #BAD>  (65) 
3

>  <butcher #GOOD>  (65) 
21

>  <butcher #protein clash>  (65) 
1

>  <butcher #solvent space>  (65) 
2

>  <butcher #pocket>  (65) 
21

>  <butcher #P1>  (65) 
14

>  <butcher #P2>  (65) 
3

>  <butcher #P1'>  (65) 
4

>  <butcher #P2'>  (65) 
0

>  <butcher #P3>  (65) 
0

>  <butcher #P4>  (65) 
0

>  <butcher #P5>  (65) 
0

>  <butcher #P6>  (65) 
0

$$$$
Z963454974
     RDKit          3D

 18 20  0  0  0  0  0  0  0  0999 V2000
   12.8560   13.6280   20.1960 N   0  0  0  0  0  0  0  0  0  0  0  0
   12.1900   13.4710   21.4930 C   0  0  0  0  0  0  0  0  0  0  0  0
   11.3910   14.6570   21.8220 C   0  0  0  0  0  0  0  0  0  0  0  0
    9.9270   14.3360   21.7960 C   0  0  0  0  0  0  0  0  0  0  0  0
    9.1730   14.9130   21.0260 O   0  0  0  0  0  0  0  0  0  0  0  0
    9.4470   13.4170   22.5970 N   0  0  0  0  0  0  0  0  0  0  0  0
    8.5720   13.6320   23.5910 C   0  0  0  0  0  0  0  0  0  0  0  0
    8.3560   12.2540   24.0540 C   0  0  0  0  0  0  0  0  0  0  0  0
    7.1920   11.8630   24.9140 C   0  0  0  0  0  0  0  0  0  0  0  0
    7.3370   10.3490   25.1040 C   0  0  0  0  0  0  0  0  0  0  0  0
    8.5090    9.5820   24.4440 C   0  0  0  0  0  0  0  0  0  0  0  0
    9.4920   10.0940   23.7040 C   0  0  0  0  0  0  0  0  0  0  0  0
    9.3350   11.5110   23.5580 C   0  0  0  0  0  0  0  0  0  0  0  0
   10.2350   12.2020   22.8590 C   0  0  0  0  0  0  0  0  0  0  0  0
   11.6720   15.7170   20.8380 C   0  0  0  0  0  0  0  0  0  0  0  0
   12.7540   16.3800   21.4970 C   0  0  0  0  0  0  0  0  0  0  0  0
   13.2530   15.3830   22.5880 C   0  0  0  0  0  0  0  0  0  0  0  0
   12.0600   15.0090   23.1440 C   0  0  0  0  0  0  0  0  0  0  0  0
  1  2  3  0
  2  3  1  0
  3  4  1  0
  4  5  2  0
  4  6  1  0
  6  7  1  0
  7  8  1  0
  8  9  2  0
  9 10  1  0
 10 11  2  0
 11 12  1  0
 12 13  2  0
 13 14  1  0
  3 15  1  0
 15 16  1  0
 16 17  1  0
 17 18  1  0
 18  3  1  0
 14  6  1  0
 13  8  1  0
A    1
 N1 
A    2
 C1 
A    3
 C2 
A    4
 C3 
A    5
 O1 
A    6
 N2 
A    7
 C4 
A    8
 C5 
A    9
 C6 
A   10
 C7 
A   11
 C8 
A   12
 C9 
A   13
 C10
A   14
 C11
A   15
 C12
A   16
 C13
A   17
 C14
A   18
 C15
M  END
>  <ref_url>  (66) 
nan

>  <submitter_name>  (66) 
nan

>  <submitter_email>  (66) 
nan

>  <submitter_institution>  (66) 
nan

>  <generation_date>  (66) 
nan

>  <method>  (66) 
nan

>  <rationale>  (66) 
info info set:3d;hbond:S87+H21; hydroph_interaction:Y89+Y90; 

>  <experiment>  (66) 
3d

>  <cluster_label>  (66) 
7

>  <cluster_rank>  (66) 
4

>  <N_interactions>  (66) 
4

>  <∆∆G>  (66) 
-2.039936

>  <comRMSD>  (66) 
0.741072

>  <ROCS_TanimotoCombo>  (66) 
0.317

>  <ROCS_ShapeTanimoto>  (66) 
0.205

>  <ROCS_ColorTanimoto>  (66) 
0.111

>  <ref_pdb>  (66) 
A71x0310a

>  <ref_mols>  (66) 
A71x0446a,A71x1080a,A71x0812a,A71x0719a,A71x1140a,A71x0528a,A71x0310a

>  <original SMILES>  (66) 
N#CC1(C(=O)N2Cc3ccccc3C2)CCCC1

>  <origin>  (66) 
A71-ROCS-iter2.sdf

>  <butcher #BAD>  (66) 
2

>  <butcher #GOOD>  (66) 
16

>  <butcher #protein clash>  (66) 
1

>  <butcher #solvent space>  (66) 
1

>  <butcher #pocket>  (66) 
16

>  <butcher #P1>  (66) 
11

>  <butcher #P2>  (66) 
3

>  <butcher #P1'>  (66) 
2

>  <butcher #P2'>  (66) 
0

>  <butcher #P3>  (66) 
0

>  <butcher #P4>  (66) 
0

>  <butcher #P5>  (66) 
0

>  <butcher #P6>  (66) 
0

$$$$
EN300_39484
     RDKit          3D

 20 21  0  0  0  0  0  0  0  0999 V2000
   -0.6020   12.3780   18.0290 N   0  0  0  0  0  0  0  0  0  0  0  0
   -0.1870   13.1240   19.4890 S   0  0  0  0  0  6  0  0  0  0  0  0
   -0.9580   12.4280   20.5040 O   0  0  0  0  0  0  0  0  0  0  0  0
   -0.2160   14.5480   19.2990 O   0  0  0  0  0  0  0  0  0  0  0  0
    1.4960   12.6420   19.5960 C   0  0  0  0  0  0  0  0  0  0  0  0
    1.8910   11.5020   18.8330 C   0  0  0  0  0  0  0  0  0  0  0  0
    3.2980   11.0880   18.9290 C   0  0  0  0  0  0  0  0  0  0  0  0
    4.4190   11.7900   19.7930 C   0  0  0  0  0  0  0  0  0  0  0  0
    3.9080   12.9400   20.5080 C   0  0  0  0  0  0  0  0  0  0  0  0
    4.8340   13.7680   21.4070 N   0  0  0  0  0  0  0  0  0  0  0  0
    6.2890   13.8770   21.6710 C   0  0  0  0  0  0  0  0  0  0  0  0
    7.1700   13.9370   20.8540 O   0  0  0  0  0  0  0  0  0  0  0  0
    6.6950   13.9020   23.0660 O   0  0  0  0  0  0  0  0  0  0  0  0
    7.6610   12.8910   23.3940 C   0  0  0  0  0  0  0  0  0  0  0  0
    7.3640   11.8690   24.3120 C   0  0  0  0  0  0  0  0  0  0  0  0
    8.2940   10.7100   24.6230 C   0  0  0  0  0  0  0  0  0  0  0  0
    9.5550   10.7310   23.9100 C   0  0  0  0  0  0  0  0  0  0  0  0
    9.9210   11.8500   22.9600 C   0  0  0  0  0  0  0  0  0  0  0  0
    8.8810   12.9440   22.7370 C   0  0  0  0  0  0  0  0  0  0  0  0
    2.4060   13.3460   20.3920 C   0  0  0  0  0  0  0  0  0  0  0  0
  1  2  1  0
  2  3  2  0
  2  4  2  0
  2  5  1  0
  5  6  2  0
  6  7  1  0
  7  8  2  0
  8  9  1  0
  9 10  1  0
 10 11  1  0
 11 12  2  0
 11 13  1  0
 13 14  1  0
 14 15  2  0
 15 16  1  0
 16 17  2  0
 17 18  1  0
 18 19  2  0
  9 20  2  0
 20  5  1  0
 19 14  1  0
A    1
 N1 
A    2
 S1 
A    3
 O1 
A    4
 O2 
A    5
 C1 
A    6
 C2 
A    7
 C3 
A    8
 C4 
A    9
 C5 
A   10
 N2 
A   11
 C6 
A   12
 O3 
A   13
 O4 
A   14
 C7 
A   15
 C8 
A   16
 C9 
A   17
 C10
A   18
 C11
A   19
 C12
A   20
 C13
M  END
>  <ref_url>  (67) 
nan

>  <submitter_name>  (67) 
nan

>  <submitter_email>  (67) 
nan

>  <submitter_institution>  (67) 
nan

>  <generation_date>  (67) 
nan

>  <method>  (67) 
nan

>  <rationale>  (67) 
info info set:sulfonimide_whole;hbond:G127+N129; hydroph_interaction:L100+L131; 

>  <experiment>  (67) 
sulfonimide_whole

>  <cluster_label>  (67) 
17

>  <cluster_rank>  (67) 
4

>  <N_interactions>  (67) 
4

>  <∆∆G>  (67) 
-1.022937

>  <comRMSD>  (67) 
0.930229

>  <ROCS_TanimotoCombo>  (67) 
0.413

>  <ROCS_ShapeTanimoto>  (67) 
0.251

>  <ROCS_ColorTanimoto>  (67) 
0.162

>  <ref_pdb>  (67) 
A71x0310a

>  <ref_mols>  (67) 
A71x0446a,A71x1080a,A71x0812a,A71x0719a,A71x1140a,A71x0528a,A71x0310a

>  <original SMILES>  (67) 
NS(=O)(=O)c1cccc(NC(=O)Oc2ccccc2)c1

>  <origin>  (67) 
A71-ROCS-iter2.sdf

>  <butcher #BAD>  (67) 
3

>  <butcher #GOOD>  (67) 
17

>  <butcher #protein clash>  (67) 
1

>  <butcher #solvent space>  (67) 
2

>  <butcher #pocket>  (67) 
17

>  <butcher #P1>  (67) 
7

>  <butcher #P2>  (67) 
0

>  <butcher #P1'>  (67) 
0

>  <butcher #P2'>  (67) 
0

>  <butcher #P3>  (67) 
4

>  <butcher #P4>  (67) 
0

>  <butcher #P5>  (67) 
6

>  <butcher #P6>  (67) 
0

$$$$
EN300_317907
     RDKit          3D

 13 13  0  0  0  0  0  0  0  0999 V2000
   10.1200    9.6240   22.8100 C   0  0  0  0  0  0  0  0  0  0  0  0
    9.4790   10.7370   23.5380 C   0  0  0  0  0  0  0  0  0  0  0  0
    9.8400   11.9720   23.4930 N   0  0  0  0  0  0  0  0  0  0  0  0
    8.9420   12.5660   24.3150 N   0  0  0  0  0  0  0  0  0  0  0  0
    8.8100   13.9870   24.2850 C   0  0  0  0  0  0  0  0  0  0  0  0
    7.4530   14.4290   23.8210 C   0  0  0  0  0  0  0  0  0  0  0  0
    7.2280   14.5420   22.0560 S   0  0  0  0  0  6  0  0  0  0  0  0
    5.9250   15.5800   22.1420 N   0  0  0  0  0  0  0  0  0  0  0  0
    6.7120   13.3630   21.4970 O   0  0  0  0  0  0  0  0  0  0  0  0
    8.3530   15.1370   21.3640 O   0  0  0  0  0  0  0  0  0  0  0  0
    7.9570   11.6780   24.6800 C   0  0  0  0  0  0  0  0  0  0  0  0
    6.8860   11.9120   25.2170 O   0  0  0  0  0  0  0  0  0  0  0  0
    8.4160   10.4490   24.3210 O   0  0  0  0  0  0  0  0  0  0  0  0
  1  2  1  0
  2  3  2  0
  3  4  1  0
  4  5  1  0
  5  6  1  0
  6  7  1  0
  7  8  1  0
  7  9  2  0
  7 10  2  0
  4 11  1  0
 11 12  2  0
 11 13  1  0
 13  2  1  0
A    1
 C1 
A    2
 C2 
A    3
 N1 
A    4
 N2 
A    5
 C3 
A    6
 C4 
A    7
 S1 
A    8
 N3 
A    9
 O1 
A   10
 O2 
A   11
 C5 
A   12
 O3 
A   13
 O4 
M  END
>  <ref_url>  (68) 
nan

>  <submitter_name>  (68) 
nan

>  <submitter_email>  (68) 
nan

>  <submitter_institution>  (68) 
nan

>  <generation_date>  (68) 
nan

>  <method>  (68) 
nan

>  <rationale>  (68) 
info info set:sulfonimide_whole;hbond:S87+G127+A86; hydroph_interaction:V124; 

>  <experiment>  (68) 
sulfonimide_whole

>  <cluster_label>  (68) 
5

>  <cluster_rank>  (68) 
4

>  <N_interactions>  (68) 
4

>  <∆∆G>  (68) 
-5.999694

>  <comRMSD>  (68) 
0.549096

>  <ROCS_TanimotoCombo>  (68) 
0.369

>  <ROCS_ShapeTanimoto>  (68) 
0.194

>  <ROCS_ColorTanimoto>  (68) 
0.175

>  <ref_pdb>  (68) 
A71x0310a

>  <ref_mols>  (68) 
A71x0446a,A71x1080a,A71x0812a,A71x0719a,A71x1140a,A71x0528a,A71x0310a

>  <original SMILES>  (68) 
Cc1nn(CCS(N)(=O)=O)c(=O)o1

>  <origin>  (68) 
A71-ROCS-iter2.sdf

>  <butcher #BAD>  (68) 
0

>  <butcher #GOOD>  (68) 
13

>  <butcher #protein clash>  (68) 
0

>  <butcher #solvent space>  (68) 
0

>  <butcher #pocket>  (68) 
13

>  <butcher #P1>  (68) 
10

>  <butcher #P2>  (68) 
2

>  <butcher #P1'>  (68) 
0

>  <butcher #P2'>  (68) 
0

>  <butcher #P3>  (68) 
1

>  <butcher #P4>  (68) 
0

>  <butcher #P5>  (68) 
0

>  <butcher #P6>  (68) 
0

$$$$
Z2164393927
     RDKit          3D

 16 16  0  0  0  0  0  0  0  0999 V2000
   12.3120   16.5690   22.4400 N   0  0  0  0  0  0  0  0  0  0  0  0
   11.9660   15.3110   22.0730 C   0  0  0  0  0  0  0  0  0  0  0  0
   11.4810   13.9520   21.7060 C   0  0  0  0  0  0  0  0  0  0  0  0
   10.4990   13.5220   22.6800 N   0  0  0  0  0  0  0  0  0  0  0  0
   10.1440   12.2090   22.8190 C   0  0  0  0  0  0  0  0  0  0  0  0
   10.5860   11.0570   22.1400 O   0  0  0  0  0  0  0  0  0  0  0  0
    9.1400   11.8240   23.8300 C   0  0  0  0  0  0  0  0  0  0  0  0
    8.7240   10.3350   24.0460 C   0  0  0  0  0  0  0  0  0  0  0  0
    7.8340    9.8610   24.9150 N   0  0  0  0  0  0  0  0  0  0  0  0
    7.2140   10.7280   25.7180 C   0  0  0  0  0  0  0  0  0  0  0  0
    7.4590   12.2200   25.6950 C   0  0  0  0  0  0  0  0  0  0  0  0
    6.7250   12.9360   26.6160 C   0  0  0  0  0  0  0  0  0  0  0  0
    5.3800   12.7620   26.4990 F   0  0  0  0  0  0  0  0  0  0  0  0
    6.9590   14.2720   26.5080 F   0  0  0  0  0  0  0  0  0  0  0  0
    7.0320   12.6190   27.9050 F   0  0  0  0  0  0  0  0  0  0  0  0
    8.3710   12.7530   24.7950 C   0  0  0  0  0  0  0  0  0  0  0  0
  1  2  3  0
  2  3  1  0
  3  4  1  0
  4  5  1  0
  5  6  2  0
  5  7  1  0
  7  8  2  0
  8  9  1  0
  9 10  2  0
 10 11  1  0
 11 12  1  0
 12 13  1  0
 12 14  1  0
 12 15  1  0
 11 16  2  0
 16  7  1  0
A    1
 N1 
A    2
 C1 
A    3
 C2 
A    4
 N2 
A    5
 C3 
A    6
 O1 
A    7
 C4 
A    8
 C5 
A    9
 N3 
A   10
 C6 
A   11
 C7 
A   12
 C8 
A   13
 F1 
A   14
 F2 
A   15
 F3 
A   16
 C9 
M  END
>  <ref_url>  (69) 
nan

>  <submitter_name>  (69) 
nan

>  <submitter_email>  (69) 
nan

>  <submitter_institution>  (69) 
nan

>  <generation_date>  (69) 
nan

>  <method>  (69) 
nan

>  <rationale>  (69) 
info info set:screening_pocket;hbond:S87+Y90+E88; hydroph_interaction:P107; 

>  <experiment>  (69) 
screening_pocket

>  <cluster_label>  (69) 
8

>  <cluster_rank>  (69) 
4

>  <N_interactions>  (69) 
5

>  <∆∆G>  (69) 
-1.632535

>  <comRMSD>  (69) 
0.475227

>  <ROCS_TanimotoCombo>  (69) 
0.675

>  <ROCS_ShapeTanimoto>  (69) 
0.235

>  <ROCS_ColorTanimoto>  (69) 
0.44

>  <ref_pdb>  (69) 
A71x0310a

>  <ref_mols>  (69) 
A71x0446a,A71x1080a,A71x0812a,A71x0719a,A71x1140a,A71x0528a,A71x0310a

>  <original SMILES>  (69) 
N#CCNC(=O)c1cncc(C(F)(F)F)c1

>  <origin>  (69) 
A71-ROCS-iter2.sdf

>  <butcher #BAD>  (69) 
3

>  <butcher #GOOD>  (69) 
13

>  <butcher #protein clash>  (69) 
1

>  <butcher #solvent space>  (69) 
2

>  <butcher #pocket>  (69) 
13

>  <butcher #P1>  (69) 
11

>  <butcher #P2>  (69) 
1

>  <butcher #P1'>  (69) 
1

>  <butcher #P2'>  (69) 
0

>  <butcher #P3>  (69) 
0

>  <butcher #P4>  (69) 
0

>  <butcher #P5>  (69) 
0

>  <butcher #P6>  (69) 
0

$$$$
EN300_26665158
     RDKit          3D

 19 20  0  0  0  0  0  0  0  0999 V2000
   12.2990   15.8750   22.9820 C   0  0  0  0  0  0  0  0  0  0  0  0
   12.1300   15.1680   21.6730 C   0  0  0  0  0  0  0  0  0  0  0  0
   13.3970   15.4040   20.8860 C   0  0  0  0  0  0  0  0  0  0  0  0
   10.8980   15.6290   20.9120 C   0  0  0  0  0  0  0  0  0  0  0  0
   11.9560   13.8150   22.0210 O   0  0  0  0  0  0  0  0  0  0  0  0
   10.9400   13.5780   22.8610 C   0  0  0  0  0  0  0  0  0  0  0  0
   10.5780   14.3430   23.7310 O   0  0  0  0  0  0  0  0  0  0  0  0
   10.4040   12.3850   22.5830 N   0  0  0  0  0  0  0  0  0  0  0  0
    9.4500   11.7650   23.3200 C   0  0  0  0  0  0  0  0  0  0  0  0
    9.4280   10.3090   23.5190 C   0  0  0  0  0  0  0  0  0  0  0  0
   10.5890    9.2850   22.7670 Cl  0  0  0  0  0  0  0  0  0  0  0  0
    8.5310    9.6430   24.2990 N   0  0  0  0  0  0  0  0  0  0  0  0
    7.6360   10.3740   24.9120 C   0  0  0  0  0  0  0  0  0  0  0  0
    7.5540   11.7330   24.7310 N   0  0  0  0  0  0  0  0  0  0  0  0
    6.6440   12.6090   25.2340 C   0  0  0  0  0  0  0  0  0  0  0  0
    5.6300   12.3120   26.0260 O   0  0  0  0  0  0  0  0  0  0  0  0
    6.9050   13.8160   24.8190 N   0  0  0  0  0  0  0  0  0  0  0  0
    8.0240   13.7320   24.0160 N   0  0  0  0  0  0  0  0  0  0  0  0
    8.4110   12.4770   23.9650 C   0  0  0  0  0  0  0  0  0  0  0  0
  1  2  1  0
  2  3  1  0
  2  4  1  0
  2  5  1  0
  5  6  1  0
  6  7  2  0
  6  8  1  0
  8  9  1  0
  9 10  2  0
 10 11  1  0
 10 12  1  0
 12 13  2  0
 13 14  1  0
 14 15  1  0
 15 16  1  0
 15 17  2  0
 17 18  1  0
 18 19  2  0
 19  9  1  0
 19 14  1  0
A    1
 C1 
A    2
 C2 
A    3
 C3 
A    4
 C4 
A    5
 O1 
A    6
 C5 
A    7
 O2 
A    8
 N1 
A    9
 C6 
A   10
 C7 
A   11
CL1 
A   12
 N2 
A   13
 C8 
A   14
 N3 
A   15
 C9 
A   16
 O3 
A   17
 N4 
A   18
 N5 
A   19
 C10
M  END
>  <ref_url>  (70) 
nan

>  <submitter_name>  (70) 
nan

>  <submitter_email>  (70) 
nan

>  <submitter_institution>  (70) 
nan

>  <generation_date>  (70) 
nan

>  <method>  (70) 
nan

>  <rationale>  (70) 
info info set:bb_whole;hbond:S87+S125+G127; hydroph_interaction:Y90+H21; 

>  <experiment>  (70) 
bb_whole

>  <cluster_label>  (70) 
9

>  <cluster_rank>  (70) 
4

>  <N_interactions>  (70) 
6

>  <∆∆G>  (70) 
-4.391066

>  <comRMSD>  (70) 
0.472442

>  <ROCS_TanimotoCombo>  (70) 
0.425

>  <ROCS_ShapeTanimoto>  (70) 
0.258

>  <ROCS_ColorTanimoto>  (70) 
0.167

>  <ref_pdb>  (70) 
A71x0310a

>  <ref_mols>  (70) 
A71x0446a,A71x1080a,A71x0812a,A71x0719a,A71x1140a,A71x0528a,A71x0310a

>  <original SMILES>  (70) 
CC(C)(C)OC(=O)Nc1c(Cl)ncn2c(O)nnc12

>  <origin>  (70) 
A71-ROCS-iter2.sdf

>  <butcher #BAD>  (70) 
1

>  <butcher #GOOD>  (70) 
18

>  <butcher #protein clash>  (70) 
1

>  <butcher #solvent space>  (70) 
0

>  <butcher #pocket>  (70) 
18

>  <butcher #P1>  (70) 
15

>  <butcher #P2>  (70) 
2

>  <butcher #P1'>  (70) 
1

>  <butcher #P2'>  (70) 
0

>  <butcher #P3>  (70) 
0

>  <butcher #P4>  (70) 
0

>  <butcher #P5>  (70) 
0

>  <butcher #P6>  (70) 
0

$$$$
EN300_6717071
     RDKit          3D

 34 39  0  0  0  0  0  0  0  0999 V2000
   10.2980    9.1180   21.6240 N   0  0  0  0  0  0  0  0  0  0  0  0
   10.3370    9.0200   23.0380 C   0  0  0  0  0  0  0  0  0  0  0  0
    8.9870    9.2640   23.5640 C   0  0  0  0  0  0  0  0  0  0  0  0
    8.6870   10.6470   23.7090 N   0  0  0  0  0  0  0  0  0  0  0  0
    9.4160   11.5630   23.0670 C   0  0  0  0  0  0  0  0  0  0  0  0
   10.2510   11.3350   22.2250 O   0  0  0  0  0  0  0  0  0  0  0  0
    9.1400   12.9750   23.4920 C   0  0  1  0  0  0  0  0  0  0  0  0
   10.3180   13.4960   24.1520 N   0  0  0  0  0  0  0  0  0  0  0  0
   11.2030   14.1340   23.3210 C   0  0  0  0  0  0  0  0  0  0  0  0
   12.6860   14.2770   23.7410 C   0  0  0  0  0  0  0  0  0  0  0  0
   13.5900   15.0000   22.8160 C   0  0  0  0  0  0  0  0  0  0  0  0
   13.1190   15.5130   21.6090 C   0  0  0  0  0  0  0  0  0  0  0  0
   11.7630   15.3310   21.3100 C   0  0  0  0  0  0  0  0  0  0  0  0
   10.8390   14.6870   22.1110 C   0  0  0  0  0  0  0  0  0  0  0  0
    9.3620   14.6090   21.6980 C   0  0  0  0  0  0  0  0  0  0  0  0
    8.9800   15.3590   20.7220 N   0  0  0  0  0  0  0  0  0  0  0  0
    7.6210   15.4170   20.5680 C   0  0  0  0  0  0  0  0  0  0  0  0
    7.1750   16.4210   20.1140 O   0  0  0  0  0  0  0  0  0  0  0  0
    6.6390   14.3680   21.1050 C   0  0  0  0  0  0  0  0  0  0  0  0
    5.1560   14.1290   20.6400 C   0  0  0  0  0  0  0  0  0  0  0  0
    4.1380   14.4850   21.5220 C   0  0  0  0  0  0  0  0  0  0  0  0
    2.7820   14.2930   21.1880 C   0  0  0  0  0  0  0  0  0  0  0  0
    2.4090   13.7450   19.9720 C   0  0  0  0  0  0  0  0  0  0  0  0
    1.1310   13.5570   19.6340 F   0  0  0  0  0  0  0  0  0  0  0  0
    3.3440   13.3860   19.0840 C   0  0  0  0  0  0  0  0  0  0  0  0
    4.6560   13.5710   19.3920 C   0  0  0  0  0  0  0  0  0  0  0  0
    7.1630   13.6390   22.0760 N   0  0  0  0  0  0  0  0  0  0  0  0
    8.5090   13.8460   22.4520 N   0  0  0  0  0  0  0  0  0  0  0  0
    8.1930   12.6620   24.6150 C   0  0  0  0  0  0  0  0  0  0  0  0
    7.5960   13.5390   25.4900 C   0  0  0  0  0  0  0  0  0  0  0  0
    6.7460   13.0160   26.4570 C   0  0  0  0  0  0  0  0  0  0  0  0
    6.5080   11.6370   26.5260 C   0  0  0  0  0  0  0  0  0  0  0  0
    7.1190   10.7690   25.6360 C   0  0  0  0  0  0  0  0  0  0  0  0
    7.9580   11.2890   24.6930 C   0  0  0  0  0  0  0  0  0  0  0  0
  1  2  3  0
  2  3  1  0
  3  4  1  0
  4  5  1  0
  5  6  2  0
  5  7  1  0
  7  8  1  1
  8  9  1  0
  9 10  2  0
 10 11  1  0
 11 12  2  0
 12 13  1  0
 13 14  2  0
 14 15  1  0
 15 16  2  0
 16 17  1  0
 17 18  2  0
 17 19  1  0
 19 20  1  0
 20 21  2  0
 21 22  1  0
 22 23  2  0
 23 24  1  0
 23 25  1  0
 25 26  2  0
 19 27  2  0
 27 28  1  0
  7 29  1  0
 29 30  2  0
 30 31  1  0
 31 32  2  0
 32 33  1  0
 33 34  2  0
 34  4  1  0
 28  7  1  0
 34 29  1  0
 14  9  1  0
 28 15  1  0
 26 20  1  0
A    1
 N1 
A    2
 C1 
A    3
 C2 
A    4
 N2 
A    5
 C3 
A    6
 O1 
A    7
 C4 
A    8
 N3 
A    9
 C5 
A   10
 C6 
A   11
 C7 
A   12
 C8 
A   13
 C9 
A   14
 C10
A   15
 C11
A   16
 N4 
A   17
 C12
A   18
 O2 
A   19
 C13
A   20
 C14
A   21
 C15
A   22
 C16
A   23
 C17
A   24
 F1 
A   25
 C18
A   26
 C19
A   27
 N5 
A   28
 N6 
A   29
 C20
A   30
 C21
A   31
 C22
A   32
 C23
A   33
 C24
A   34
 C25
M  END
>  <ref_url>  (71) 
nan

>  <submitter_name>  (71) 
nan

>  <submitter_email>  (71) 
nan

>  <submitter_institution>  (71) 
nan

>  <generation_date>  (71) 
nan

>  <method>  (71) 
nan

>  <rationale>  (71) 
info info set:bb_whole;hbond:S87+S125+G127; hydroph_interaction:P107+Y89+Y90+V84+E85; 

>  <experiment>  (71) 
bb_whole

>  <cluster_label>  (71) 
3

>  <cluster_rank>  (71) 
4

>  <N_interactions>  (71) 
10

>  <∆∆G>  (71) 
-2.189792

>  <comRMSD>  (71) 
0.831449

>  <ROCS_TanimotoCombo>  (71) 
0.422

>  <ROCS_ShapeTanimoto>  (71) 
0.289

>  <ROCS_ColorTanimoto>  (71) 
0.133

>  <ref_pdb>  (71) 
A71x0310a

>  <ref_mols>  (71) 
A71x0446a,A71x1080a,A71x0812a,A71x0719a,A71x1140a,A71x0528a,A71x0310a

>  <original SMILES>  (71) 
N#CCN1C(=O)[C@]2(Nc3ccccc3-c3nc(=O)c(-c4ccc(F)cc4)nn32)c2ccccc21

>  <origin>  (71) 
A71-ROCS-iter2.sdf

>  <butcher #BAD>  (71) 
7

>  <butcher #GOOD>  (71) 
27

>  <butcher #protein clash>  (71) 
6

>  <butcher #solvent space>  (71) 
1

>  <butcher #pocket>  (71) 
27

>  <butcher #P1>  (71) 
17

>  <butcher #P2>  (71) 
3

>  <butcher #P1'>  (71) 
2

>  <butcher #P2'>  (71) 
0

>  <butcher #P3>  (71) 
4

>  <butcher #P4>  (71) 
0

>  <butcher #P5>  (71) 
1

>  <butcher #P6>  (71) 
0

$$$$
EN300_6722885
     RDKit          3D

 17 18  0  0  0  0  0  0  0  0999 V2000
    6.4770   10.3190   25.9450 O   0  0  0  0  0  0  0  0  0  0  0  0
    7.5480   10.7870   25.1320 C   0  0  0  0  0  0  0  0  0  0  0  0
    7.6500   12.1180   25.1010 N   0  0  0  0  0  0  0  0  0  0  0  0
    8.6680   12.5890   24.3490 C   0  0  0  0  0  0  0  0  0  0  0  0
    9.6450   11.6890   23.5840 C   0  0  0  0  0  0  0  0  0  0  0  0
   10.7430   12.1090   22.7950 N   0  0  0  0  0  0  0  0  0  0  0  0
   10.7830   13.5230   22.4620 C   0  0  0  0  0  0  0  0  0  0  0  0
   11.7580   14.4270   23.1720 C   0  0  0  0  0  0  0  0  0  0  0  0
   13.1590   13.9310   23.1820 C   0  0  0  0  0  0  0  0  0  0  0  0
   13.3450   13.1990   24.2190 C   0  0  0  0  0  0  0  0  0  0  0  0
   14.5440   12.6200   24.5610 C   0  0  0  0  0  0  0  0  0  0  0  0
   15.5960   12.8080   23.7300 C   0  0  0  0  0  0  0  0  0  0  0  0
   15.4330   13.5750   22.5930 C   0  0  0  0  0  0  0  0  0  0  0  0
   14.1910   14.1590   22.3110 C   0  0  0  0  0  0  0  0  0  0  0  0
    9.3160   10.3480   23.7730 C   0  0  0  0  0  0  0  0  0  0  0  0
   10.0490    9.3580   23.1820 O   0  0  0  0  0  0  0  0  0  0  0  0
    8.3130    9.8790   24.5090 N   0  0  0  0  0  0  0  0  0  0  0  0
  1  2  1  0
  2  3  2  0
  3  4  1  0
  4  5  2  0
  5  6  1  0
  6  7  1  0
  7  8  1  0
  8  9  1  0
  9 10  2  0
 10 11  1  0
 11 12  2  0
 12 13  1  0
 13 14  2  0
  5 15  1  0
 15 16  1  0
 15 17  2  0
 17  2  1  0
 14  9  1  0
A    1
 O1 
A    2
 C1 
A    3
 N1 
A    4
 C2 
A    5
 C3 
A    6
 N2 
A    7
 C4 
A    8
 C5 
A    9
 C6 
A   10
 C7 
A   11
 C8 
A   12
 C9 
A   13
 C10
A   14
 C11
A   15
 C12
A   16
 O2 
A   17
 N3 
M  END
>  <ref_url>  (72) 
nan

>  <submitter_name>  (72) 
nan

>  <submitter_email>  (72) 
nan

>  <submitter_institution>  (72) 
nan

>  <generation_date>  (72) 
nan

>  <method>  (72) 
nan

>  <rationale>  (72) 
info info set:bb_densepocket2;hbond:S105+G127; hydroph_interaction:P107+Y89+Y90+H21+L22; 

>  <experiment>  (72) 
bb_densepocket2

>  <cluster_label>  (72) 
16

>  <cluster_rank>  (72) 
4

>  <N_interactions>  (72) 
7

>  <∆∆G>  (72) 
-3.535581

>  <comRMSD>  (72) 
0.582502

>  <ROCS_TanimotoCombo>  (72) 
0.619

>  <ROCS_ShapeTanimoto>  (72) 
0.234

>  <ROCS_ColorTanimoto>  (72) 
0.385

>  <ref_pdb>  (72) 
A71x0310a

>  <ref_mols>  (72) 
A71x0446a,A71x1080a,A71x0812a,A71x0719a,A71x1140a,A71x0528a,A71x0310a

>  <original SMILES>  (72) 
Oc1ncc(NCCc2ccccc2)c(O)n1

>  <origin>  (72) 
A71-ROCS-iter2.sdf

>  <butcher #BAD>  (72) 
3

>  <butcher #GOOD>  (72) 
14

>  <butcher #protein clash>  (72) 
3

>  <butcher #solvent space>  (72) 
0

>  <butcher #pocket>  (72) 
14

>  <butcher #P1>  (72) 
10

>  <butcher #P2>  (72) 
0

>  <butcher #P1'>  (72) 
3

>  <butcher #P2'>  (72) 
1

>  <butcher #P3>  (72) 
0

>  <butcher #P4>  (72) 
0

>  <butcher #P5>  (72) 
0

>  <butcher #P6>  (72) 
0

$$$$
Z56826073
     RDKit          3D

 18 20  0  0  0  0  0  0  0  0999 V2000
    5.2670   14.3160   20.6880 C   0  0  0  0  0  0  0  0  0  0  0  0
    5.4160   14.6180   22.0730 N   0  0  0  0  0  0  0  0  0  0  0  0
    6.8420   15.3580   22.4490 S   0  0  0  0  0  6  0  0  0  0  0  0
    7.2970   15.7890   21.1280 O   0  0  0  0  0  0  0  0  0  0  0  0
    6.6800   16.1570   23.6320 O   0  0  0  0  0  0  0  0  0  0  0  0
    7.8640   14.0330   22.8680 C   0  0  0  0  0  0  0  0  0  0  0  0
    9.1570   13.8230   22.1370 C   0  0  0  0  0  0  0  0  0  0  0  0
   10.1170   12.6000   22.3610 C   0  0  0  0  0  0  0  0  0  0  0  0
    9.3580   11.8800   23.2800 C   0  0  0  0  0  0  0  0  0  0  0  0
    8.1960   12.1120   23.9340 C   0  0  0  0  0  0  0  0  0  0  0  0
    7.8270   11.0900   24.7600 C   0  0  0  0  0  0  0  0  0  0  0  0
    6.7620   11.0740   25.6490 C   0  0  0  0  0  0  0  0  0  0  0  0
    5.9640   12.1820   25.6830 C   0  0  0  0  0  0  0  0  0  0  0  0
    6.2250   13.2480   24.7970 C   0  0  0  0  0  0  0  0  0  0  0  0
    7.4160   13.1980   23.8430 C   0  0  0  0  0  0  0  0  0  0  0  0
    8.7370   10.1190   24.4200 C   0  0  0  0  0  0  0  0  0  0  0  0
    8.5590    9.0030   24.5850 O   0  0  0  0  0  0  0  0  0  0  0  0
    9.7850   10.6550   23.7190 N   0  0  0  0  0  0  0  0  0  0  0  0
  1  2  1  0
  2  3  1  0
  3  4  2  0
  3  5  2  0
  3  6  1  0
  6  7  2  0
  7  8  1  0
  8  9  2  0
  9 10  1  0
 10 11  2  0
 11 12  1  0
 12 13  2  0
 13 14  1  0
 14 15  2  0
 11 16  1  0
 16 17  2  0
 16 18  1  0
 15  6  1  0
 18  9  1  0
 15 10  1  0
A    1
 C1 
A    2
 N1 
A    3
 S1 
A    4
 O1 
A    5
 O2 
A    6
 C2 
A    7
 C3 
A    8
 C4 
A    9
 C5 
A   10
 C6 
A   11
 C7 
A   12
 C8 
A   13
 C9 
A   14
 C10
A   15
 C11
A   16
 C12
A   17
 O3 
A   18
 N2 
M  END
>  <ref_url>  (73) 
nan

>  <submitter_name>  (73) 
nan

>  <submitter_email>  (73) 
nan

>  <submitter_institution>  (73) 
nan

>  <generation_date>  (73) 
nan

>  <method>  (73) 
nan

>  <rationale>  (73) 
info info set:3d;hbond:G127+E106; 

>  <experiment>  (73) 
3d

>  <cluster_label>  (73) 
6

>  <cluster_rank>  (73) 
5

>  <N_interactions>  (73) 
2

>  <∆∆G>  (73) 
-1.918587

>  <comRMSD>  (73) 
0.963765

>  <ROCS_TanimotoCombo>  (73) 
0.366

>  <ROCS_ShapeTanimoto>  (73) 
0.211

>  <ROCS_ColorTanimoto>  (73) 
0.155

>  <ref_pdb>  (73) 
A71x0310a

>  <ref_mols>  (73) 
A71x0446a,A71x1080a,A71x0812a,A71x0719a,A71x1140a,A71x0528a,A71x0310a

>  <original SMILES>  (73) 
CNS(=O)(=O)c1ccc2c3c(cccc13)C(=O)N2

>  <origin>  (73) 
A71-ROCS-iter2.sdf

>  <butcher #BAD>  (73) 
4

>  <butcher #GOOD>  (73) 
14

>  <butcher #protein clash>  (73) 
4

>  <butcher #solvent space>  (73) 
0

>  <butcher #pocket>  (73) 
14

>  <butcher #P1>  (73) 
12

>  <butcher #P2>  (73) 
0

>  <butcher #P1'>  (73) 
0

>  <butcher #P2'>  (73) 
0

>  <butcher #P3>  (73) 
2

>  <butcher #P4>  (73) 
0

>  <butcher #P5>  (73) 
0

>  <butcher #P6>  (73) 
0

$$$$
Z45515797
     RDKit          3D

 17 18  0  0  0  0  0  0  0  0999 V2000
    9.2870   14.7450   22.9930 O   0  0  0  0  0  0  0  0  0  0  0  0
   10.1540   13.8070   22.4540 S   0  0  0  0  0  6  0  0  0  0  0  0
   10.2180   13.7400   21.0390 O   0  0  0  0  0  0  0  0  0  0  0  0
    9.4040   12.4530   23.3110 C   0  0  0  0  0  0  0  0  0  0  0  0
    8.3700   12.9150   24.2360 C   0  0  0  0  0  0  0  0  0  0  0  0
    7.5510   12.1970   25.0800 C   0  0  0  0  0  0  0  0  0  0  0  0
    7.7460   10.8590   25.0350 C   0  0  0  0  0  0  0  0  0  0  0  0
    6.9540   10.1800   25.8450 F   0  0  0  0  0  0  0  0  0  0  0  0
    8.7650   10.0880   24.1590 C   0  0  0  0  0  0  0  0  0  0  0  0
    9.6500   10.9450   23.2370 C   0  0  0  0  0  0  0  0  0  0  0  0
   10.5390   10.3520   22.4560 F   0  0  0  0  0  0  0  0  0  0  0  0
   11.7150   14.0440   23.0300 N   0  0  0  0  0  0  0  0  0  0  0  0
   12.0500   15.2470   23.4850 C   0  0  0  0  0  0  0  0  0  0  0  0
   12.1110   16.1500   22.4260 C   0  0  0  0  0  0  0  0  0  0  0  0
   13.0220   15.8830   21.4730 O   0  0  0  0  0  0  0  0  0  0  0  0
   12.7780   14.5640   21.0210 C   0  0  0  0  0  0  0  0  0  0  0  0
   12.6120   13.6830   22.0970 C   0  0  0  0  0  0  0  0  0  0  0  0
  1  2  2  0
  2  3  2  0
  2  4  1  0
  4  5  2  0
  5  6  1  0
  6  7  2  0
  7  8  1  0
  7  9  1  0
  9 10  2  0
 10 11  1  0
  2 12  1  0
 12 13  1  0
 13 14  1  0
 14 15  1  0
 15 16  1  0
 16 17  1  0
 10  4  1  0
 17 12  1  0
A    1
 O1 
A    2
 S1 
A    3
 O2 
A    4
 C1 
A    5
 C2 
A    6
 C3 
A    7
 C4 
A    8
 F1 
A    9
 C5 
A   10
 C6 
A   11
 F2 
A   12
 N1 
A   13
 C7 
A   14
 C8 
A   15
 O3 
A   16
 C9 
A   17
 C10
M  END
>  <ref_url>  (74) 
nan

>  <submitter_name>  (74) 
nan

>  <submitter_email>  (74) 
nan

>  <submitter_institution>  (74) 
nan

>  <generation_date>  (74) 
nan

>  <method>  (74) 
nan

>  <rationale>  (74) 
info info set:3d;halogenbond:C110; hbond:S87; 

>  <experiment>  (74) 
3d

>  <cluster_label>  (74) 
2

>  <cluster_rank>  (74) 
5

>  <N_interactions>  (74) 
2

>  <∆∆G>  (74) 
-0.378576

>  <comRMSD>  (74) 
0.931613

>  <ROCS_TanimotoCombo>  (74) 
0.319

>  <ROCS_ShapeTanimoto>  (74) 
0.21

>  <ROCS_ColorTanimoto>  (74) 
0.109

>  <ref_pdb>  (74) 
A71x0310a

>  <ref_mols>  (74) 
A71x0446a,A71x1080a,A71x0812a,A71x0719a,A71x1140a,A71x0528a,A71x0310a

>  <original SMILES>  (74) 
O=S(=O)(c1ccc(F)cc1F)N1CCOCC1

>  <origin>  (74) 
A71-ROCS-iter2.sdf

>  <butcher #BAD>  (74) 
2

>  <butcher #GOOD>  (74) 
15

>  <butcher #protein clash>  (74) 
0

>  <butcher #solvent space>  (74) 
2

>  <butcher #pocket>  (74) 
15

>  <butcher #P1>  (74) 
12

>  <butcher #P2>  (74) 
0

>  <butcher #P1'>  (74) 
3

>  <butcher #P2'>  (74) 
0

>  <butcher #P3>  (74) 
0

>  <butcher #P4>  (74) 
0

>  <butcher #P5>  (74) 
0

>  <butcher #P6>  (74) 
0

$$$$
EN300_7530327
     RDKit          3D

 15 15  0  0  0  0  0  0  0  0999 V2000
    0.2550   12.5310   16.9680 C   0  0  0  0  0  0  0  0  0  0  0  0
    0.6100   13.0670   18.2120 C   0  0  0  0  0  0  0  0  0  0  0  0
   -0.2760   14.0990   18.7000 O   0  0  0  0  0  0  0  0  0  0  0  0
    1.7350   12.5920   18.8640 N   0  0  0  0  0  0  0  0  0  0  0  0
    2.3540   11.3640   18.4020 C   0  0  0  0  0  0  0  0  0  0  0  0
    3.6880   11.4140   18.7220 C   0  0  0  0  0  0  0  0  0  0  0  0
    3.9920   11.8390   20.0060 C   0  0  0  0  0  0  0  0  0  0  0  0
    3.5530   13.0930   20.4850 C   0  0  1  0  0  0  0  0  0  0  0  0
    4.5270   14.1680   21.0360 C   0  0  0  0  0  0  0  0  0  0  0  0
    5.9050   13.6440   21.2860 N   0  0  0  0  0  0  0  0  0  0  0  0
    7.0260   14.2690   22.4270 S   0  0  0  0  0  6  0  0  0  0  0  0
    7.7870   12.9620   23.4100 C   0  0  0  0  0  0  0  0  0  0  0  0
    8.0880   14.7050   21.5650 O   0  0  0  0  0  0  0  0  0  0  0  0
    6.3490   15.1380   23.3500 O   0  0  0  0  0  0  0  0  0  0  0  0
    2.6860   13.5990   19.3420 C   0  0  0  0  0  0  0  0  0  0  0  0
  1  2  1  0
  2  3  2  0
  2  4  1  0
  4  5  1  0
  5  6  1  0
  6  7  1  0
  7  8  1  0
  8  9  1  6
  9 10  1  0
 10 11  1  0
 11 12  1  0
 11 13  2  0
 11 14  2  0
  8 15  1  0
 15  4  1  0
A    1
 C1 
A    2
 C2 
A    3
 O1 
A    4
 N1 
A    5
 C3 
A    6
 C4 
A    7
 C5 
A    8
 C6 
A    9
 C7 
A   10
 N2 
A   11
 S1 
A   12
 C8 
A   13
 O2 
A   14
 O3 
A   15
 C9 
M  END
>  <ref_url>  (75) 
nan

>  <submitter_name>  (75) 
nan

>  <submitter_email>  (75) 
nan

>  <submitter_institution>  (75) 
nan

>  <generation_date>  (75) 
nan

>  <method>  (75) 
nan

>  <rationale>  (75) 
info info set:sulfonimide_whole;hbond:S87+G127; hydroph_interaction:L100+I82; 

>  <experiment>  (75) 
sulfonimide_whole

>  <cluster_label>  (75) 
15

>  <cluster_rank>  (75) 
5

>  <N_interactions>  (75) 
5

>  <∆∆G>  (75) 
-3.718898

>  <comRMSD>  (75) 
0.905002

>  <ROCS_TanimotoCombo>  (75) 
0.309

>  <ROCS_ShapeTanimoto>  (75) 
0.186

>  <ROCS_ColorTanimoto>  (75) 
0.123

>  <ref_pdb>  (75) 
A71x0310a

>  <ref_mols>  (75) 
A71x0446a,A71x1080a,A71x0812a,A71x0719a,A71x1140a,A71x0528a,A71x0310a

>  <original SMILES>  (75) 
CC(=O)N1CCC[C@@H](CNS(C)(=O)=O)C1

>  <origin>  (75) 
A71-ROCS-iter2.sdf

>  <butcher #BAD>  (75) 
1

>  <butcher #GOOD>  (75) 
14

>  <butcher #protein clash>  (75) 
1

>  <butcher #solvent space>  (75) 
0

>  <butcher #pocket>  (75) 
14

>  <butcher #P1>  (75) 
2

>  <butcher #P2>  (75) 
1

>  <butcher #P1'>  (75) 
0

>  <butcher #P2'>  (75) 
0

>  <butcher #P3>  (75) 
5

>  <butcher #P4>  (75) 
1

>  <butcher #P5>  (75) 
4

>  <butcher #P6>  (75) 
1

$$$$
Z2055842473
     RDKit          3D

 18 19  0  0  0  0  0  0  0  0999 V2000
   10.2480    8.7490   22.9140 C   0  0  0  0  0  0  0  0  0  0  0  0
    9.9920    9.5350   24.0450 O   0  0  0  0  0  0  0  0  0  0  0  0
    9.1250   10.5290   23.6890 C   0  0  1  0  0  0  0  0  0  0  0  0
    8.2080   11.0680   24.7080 C   0  0  0  0  0  0  0  0  0  0  0  0
    7.8080   12.4350   24.2250 C   0  0  1  0  0  0  0  0  0  0  0  0
    7.2630   13.4850   25.2370 C   0  0  0  0  0  0  0  0  0  0  0  0
    6.3870   14.1430   24.6850 O   0  0  0  0  0  0  0  0  0  0  0  0
    8.9770   12.8510   23.5180 N   0  0  0  0  0  0  0  0  0  0  0  0
    8.8980   13.9550   22.6560 C   0  0  0  0  0  0  0  0  0  0  0  0
    7.9100   14.5180   22.2090 O   0  0  0  0  0  0  0  0  0  0  0  0
   10.2990   14.3450   22.3010 C   0  0  0  0  0  0  0  0  0  0  0  0
   11.0460   14.5790   23.6010 C   0  0  0  0  0  0  0  0  0  0  0  0
   12.4850   15.0150   23.6090 C   0  0  0  0  0  0  0  0  0  0  0  0
   13.1000   15.1770   22.2220 C   0  0  0  0  0  0  0  0  0  0  0  0
   12.3090   14.9030   21.0900 C   0  0  0  0  0  0  0  0  0  0  0  0
   12.8700   15.0000   19.5340 Cl  0  0  0  0  0  0  0  0  0  0  0  0
   10.8890   14.4900   21.1170 C   0  0  0  0  0  0  0  0  0  0  0  0
    9.8480   11.7540   23.1800 C   0  0  0  0  0  0  0  0  0  0  0  0
  1  2  1  0
  3  2  1  1
  3  4  1  0
  4  5  1  0
  5  6  1  1
  6  7  1  0
  5  8  1  0
  8  9  1  0
  9 10  2  0
  9 11  1  0
 11 12  2  0
 12 13  1  0
 13 14  2  0
 14 15  1  0
 15 16  1  0
 15 17  2  0
  8 18  1  0
 18  3  1  0
 17 11  1  0
A    1
 C1 
A    2
 O1 
A    3
 C2 
A    4
 C3 
A    5
 C4 
A    6
 C5 
A    7
 O2 
A    8
 N1 
A    9
 C6 
A   10
 O3 
A   11
 C7 
A   12
 C8 
A   13
 C9 
A   14
 C10
A   15
 C11
A   16
CL1 
A   17
 C12
A   18
 C13
M  END
>  <ref_url>  (76) 
nan

>  <submitter_name>  (76) 
nan

>  <submitter_email>  (76) 
nan

>  <submitter_institution>  (76) 
nan

>  <generation_date>  (76) 
nan

>  <method>  (76) 
nan

>  <rationale>  (76) 
info info set:3d;halogenbond:D39; hbond:S87+G127; hydroph_interaction:Y89; 

>  <experiment>  (76) 
3d

>  <cluster_label>  (76) 
18

>  <cluster_rank>  (76) 
5

>  <N_interactions>  (76) 
4

>  <∆∆G>  (76) 
-3.357122

>  <comRMSD>  (76) 
0.604477

>  <ROCS_TanimotoCombo>  (76) 
0.326

>  <ROCS_ShapeTanimoto>  (76) 
0.217

>  <ROCS_ColorTanimoto>  (76) 
0.109

>  <ref_pdb>  (76) 
A71x0310a

>  <ref_mols>  (76) 
A71x0446a,A71x1080a,A71x0812a,A71x0719a,A71x1140a,A71x0528a,A71x0310a

>  <original SMILES>  (76) 
CO[C@H]1C[C@@H](CO)N(C(=O)c2cccc(Cl)c2)C1

>  <origin>  (76) 
A71-ROCS-iter2.sdf

>  <butcher #BAD>  (76) 
2

>  <butcher #GOOD>  (76) 
16

>  <butcher #protein clash>  (76) 
1

>  <butcher #solvent space>  (76) 
1

>  <butcher #pocket>  (76) 
16

>  <butcher #P1>  (76) 
13

>  <butcher #P2>  (76) 
1

>  <butcher #P1'>  (76) 
2

>  <butcher #P2'>  (76) 
0

>  <butcher #P3>  (76) 
0

>  <butcher #P4>  (76) 
0

>  <butcher #P5>  (76) 
0

>  <butcher #P6>  (76) 
0

$$$$
EN300_82953
     RDKit          3D

 11 11  0  0  0  0  0  0  0  0999 V2000
   10.1870    9.0440   22.3560 C   0  0  0  0  0  0  0  0  0  0  0  0
   10.2830   10.0440   23.3380 N   0  0  0  0  0  0  0  0  0  0  0  0
    9.2010   10.6710   23.9180 C   0  0  0  0  0  0  0  0  0  0  0  0
    8.3320    9.9980   24.7270 N   0  0  0  0  0  0  0  0  0  0  0  0
    7.3140   10.6810   25.2940 C   0  0  0  0  0  0  0  0  0  0  0  0
    7.1140   12.1690   25.0370 C   0  0  0  0  0  0  0  0  0  0  0  0
    8.0230   12.7680   24.2020 C   0  0  0  0  0  0  0  0  0  0  0  0
    9.0500   12.0200   23.6550 C   0  0  0  0  0  0  0  0  0  0  0  0
    9.9460   12.8660   22.7700 C   0  0  0  0  0  0  0  0  0  0  0  0
   11.2800   12.8020   23.0250 N   0  0  0  0  0  0  0  0  0  0  0  0
    9.5310   13.5800   21.8830 O   0  0  0  0  0  0  0  0  0  0  0  0
  1  2  1  0
  2  3  1  0
  3  4  2  0
  4  5  1  0
  5  6  2  0
  6  7  1  0
  7  8  2  0
  8  9  1  0
  9 10  1  0
  9 11  2  0
  8  3  1  0
A    1
 C1 
A    2
 N1 
A    3
 C2 
A    4
 N2 
A    5
 C3 
A    6
 C4 
A    7
 C5 
A    8
 C6 
A    9
 C7 
A   10
 N3 
A   11
 O1 
M  END
>  <ref_url>  (77) 
nan

>  <submitter_name>  (77) 
nan

>  <submitter_email>  (77) 
nan

>  <submitter_institution>  (77) 
nan

>  <generation_date>  (77) 
nan

>  <method>  (77) 
nan

>  <rationale>  (77) 
info info set:bb_densepocket2;hbond:G127+P107; 

>  <experiment>  (77) 
bb_densepocket2

>  <cluster_label>  (77) 
11

>  <cluster_rank>  (77) 
5

>  <N_interactions>  (77) 
2

>  <∆∆G>  (77) 
-4.527532

>  <comRMSD>  (77) 
0.819452

>  <ROCS_TanimotoCombo>  (77) 
0.613

>  <ROCS_ShapeTanimoto>  (77) 
0.214

>  <ROCS_ColorTanimoto>  (77) 
0.399

>  <ref_pdb>  (77) 
A71x0310a

>  <ref_mols>  (77) 
A71x0446a,A71x1080a,A71x0812a,A71x0719a,A71x1140a,A71x0528a,A71x0310a

>  <original SMILES>  (77) 
CNc1ncccc1C(N)=O

>  <origin>  (77) 
A71-ROCS-iter2.sdf

>  <butcher #BAD>  (77) 
0

>  <butcher #GOOD>  (77) 
11

>  <butcher #protein clash>  (77) 
0

>  <butcher #solvent space>  (77) 
0

>  <butcher #pocket>  (77) 
11

>  <butcher #P1>  (77) 
11

>  <butcher #P2>  (77) 
0

>  <butcher #P1'>  (77) 
0

>  <butcher #P2'>  (77) 
0

>  <butcher #P3>  (77) 
0

>  <butcher #P4>  (77) 
0

>  <butcher #P5>  (77) 
0

>  <butcher #P6>  (77) 
0

$$$$
Z1375235618
     RDKit          3D

 19 20  0  0  0  0  0  0  0  0999 V2000
    8.7520   14.1540   24.5380 C   0  0  0  0  0  0  0  0  0  0  0  0
    8.6380   12.6530   24.4810 C   0  0  0  0  0  0  0  0  0  0  0  0
    7.5370   12.1750   25.3020 N   0  0  0  0  0  0  0  0  0  0  0  0
    7.3780   10.7790   25.2950 C   0  0  0  0  0  0  0  0  0  0  0  0
    6.2980   10.2620   26.1110 O   0  0  0  0  0  0  0  0  0  0  0  0
    8.2510    9.9050   24.5100 N   0  0  0  0  0  0  0  0  0  0  0  0
    9.2400   10.4240   23.7810 C   0  0  0  0  0  0  0  0  0  0  0  0
    9.9230    9.4530   23.1370 O   0  0  0  0  0  0  0  0  0  0  0  0
    9.6310   11.8780   23.6280 C   0  0  0  0  0  0  0  0  0  0  0  0
   10.6890   12.4280   22.8730 N   0  0  0  0  0  0  0  0  0  0  0  0
   11.7680   11.6440   22.5330 C   0  0  0  0  0  0  0  0  0  0  0  0
   11.7960   10.1930   22.6730 O   0  0  0  0  0  0  0  0  0  0  0  0
   13.0360   12.1800   21.9440 C   0  0  0  0  0  0  0  0  0  0  0  0
   12.7050   13.5540   22.4060 C   0  0  0  0  0  0  0  0  0  0  0  0
   13.1830   13.8880   23.7380 C   0  0  0  0  0  0  0  0  0  0  0  0
   12.8900   15.2180   24.2440 C   0  0  0  0  0  0  0  0  0  0  0  0
   12.1760   16.0060   23.3490 C   0  0  0  0  0  0  0  0  0  0  0  0
   11.7490   15.6920   22.1200 N   0  0  0  0  0  0  0  0  0  0  0  0
   12.0170   14.4770   21.6660 C   0  0  0  0  0  0  0  0  0  0  0  0
  1  2  1  0
  2  3  2  0
  3  4  1  0
  4  5  1  0
  4  6  2  0
  6  7  1  0
  7  8  1  0
  7  9  2  0
  9 10  1  0
 10 11  1  0
 11 12  2  0
 11 13  1  0
 13 14  1  0
 14 15  2  0
 15 16  1  0
 16 17  2  0
 17 18  1  0
 18 19  2  0
  9  2  1  0
 19 14  1  0
A    1
 C1 
A    2
 C2 
A    3
 N1 
A    4
 C3 
A    5
 O1 
A    6
 N2 
A    7
 C4 
A    8
 O2 
A    9
 C5 
A   10
 N3 
A   11
 C6 
A   12
 O3 
A   13
 C7 
A   14
 C8 
A   15
 C9 
A   16
 C10
A   17
 C11
A   18
 N4 
A   19
 C12
M  END
>  <ref_url>  (78) 
nan

>  <submitter_name>  (78) 
nan

>  <submitter_email>  (78) 
nan

>  <submitter_institution>  (78) 
nan

>  <generation_date>  (78) 
nan

>  <method>  (78) 
nan

>  <rationale>  (78) 
info info set:screening_pocket;hbond:S87+S105+C110; hydroph_interaction:Y89; 

>  <experiment>  (78) 
screening_pocket

>  <cluster_label>  (78) 
16

>  <cluster_rank>  (78) 
5

>  <N_interactions>  (78) 
4

>  <∆∆G>  (78) 
-3.495724

>  <comRMSD>  (78) 
0.621095

>  <ROCS_TanimotoCombo>  (78) 
0.673

>  <ROCS_ShapeTanimoto>  (78) 
0.255

>  <ROCS_ColorTanimoto>  (78) 
0.418

>  <ref_pdb>  (78) 
A71x0310a

>  <ref_mols>  (78) 
A71x0446a,A71x1080a,A71x0812a,A71x0719a,A71x1140a,A71x0528a,A71x0310a

>  <original SMILES>  (78) 
Cc1nc(O)nc(O)c1NC(=O)Cc1cccnc1

>  <origin>  (78) 
A71-ROCS-iter2.sdf

>  <butcher #BAD>  (78) 
4

>  <butcher #GOOD>  (78) 
15

>  <butcher #protein clash>  (78) 
3

>  <butcher #solvent space>  (78) 
1

>  <butcher #pocket>  (78) 
15

>  <butcher #P1>  (78) 
10

>  <butcher #P2>  (78) 
1

>  <butcher #P1'>  (78) 
4

>  <butcher #P2'>  (78) 
0

>  <butcher #P3>  (78) 
0

>  <butcher #P4>  (78) 
0

>  <butcher #P5>  (78) 
0

>  <butcher #P6>  (78) 
0

$$$$
EN300_6760189
     RDKit          3D

 15 16  0  0  0  0  0  0  0  0999 V2000
    6.0410   15.7550   22.2820 N   0  0  0  0  0  0  0  0  0  0  0  0
    6.8390   14.2870   22.3760 S   0  0  0  0  0  6  0  0  0  0  0  0
    6.7740   14.0260   23.7970 O   0  0  0  0  0  0  0  0  0  0  0  0
    6.2170   13.4770   21.4010 O   0  0  0  0  0  0  0  0  0  0  0  0
    8.5300   14.5060   21.7980 C   0  0  0  0  0  0  0  0  0  0  0  0
    8.9550   15.4600   20.9180 N   0  0  0  0  0  0  0  0  0  0  0  0
   10.2720   15.4060   20.7250 N   0  0  0  0  0  0  0  0  0  0  0  0
   11.1040   14.1940   21.5610 S   0  0  0  0  0  0  0  0  0  0  0  0
    9.6550   13.6290   22.2410 C   0  0  0  0  0  0  0  0  0  0  0  0
    9.2970   12.4380   23.1220 C   0  0  0  0  0  0  0  0  0  0  0  0
    8.2960   12.7060   24.1820 C   0  0  0  0  0  0  0  0  0  0  0  0
    7.8450   11.5130   25.0400 C   0  0  0  0  0  0  0  0  0  0  0  0
    8.5200   10.1810   24.6590 C   0  0  0  0  0  0  0  0  0  0  0  0
    9.4590   10.1540   23.6380 C   0  0  0  0  0  0  0  0  0  0  0  0
    9.8590   11.2030   22.8840 C   0  0  0  0  0  0  0  0  0  0  0  0
  1  2  1  0
  2  3  2  0
  2  4  2  0
  2  5  1  0
  5  6  1  0
  6  7  2  0
  7  8  1  0
  8  9  1  0
  9 10  1  0
 10 11  2  0
 11 12  1  0
 12 13  2  0
 13 14  1  0
 14 15  2  0
  9  5  2  0
 15 10  1  0
A    1
 N1 
A    2
 S1 
A    3
 O1 
A    4
 O2 
A    5
 C1 
A    6
 N2 
A    7
 N3 
A    8
 S2 
A    9
 C2 
A   10
 C3 
A   11
 C4 
A   12
 C5 
A   13
 C6 
A   14
 C7 
A   15
 C8 
M  END
>  <ref_url>  (79) 
nan

>  <submitter_name>  (79) 
nan

>  <submitter_email>  (79) 
nan

>  <submitter_institution>  (79) 
nan

>  <generation_date>  (79) 
nan

>  <method>  (79) 
nan

>  <rationale>  (79) 
info info set:sulfonimide_whole;hbond:S87+G127+A86; hydroph_interaction:P107; 

>  <experiment>  (79) 
sulfonimide_whole

>  <cluster_label>  (79) 
5

>  <cluster_rank>  (79) 
5

>  <N_interactions>  (79) 
4

>  <∆∆G>  (79) 
-4.500111

>  <comRMSD>  (79) 
0.590884

>  <ROCS_TanimotoCombo>  (79) 
0.356

>  <ROCS_ShapeTanimoto>  (79) 
0.196

>  <ROCS_ColorTanimoto>  (79) 
0.16

>  <ref_pdb>  (79) 
A71x0310a

>  <ref_mols>  (79) 
A71x0446a,A71x1080a,A71x0812a,A71x0719a,A71x1140a,A71x0528a,A71x0310a

>  <original SMILES>  (79) 
NS(=O)(=O)c1nnsc1-c1ccccc1

>  <origin>  (79) 
A71-ROCS-iter2.sdf

>  <butcher #BAD>  (79) 
0

>  <butcher #GOOD>  (79) 
15

>  <butcher #protein clash>  (79) 
0

>  <butcher #solvent space>  (79) 
0

>  <butcher #pocket>  (79) 
15

>  <butcher #P1>  (79) 
9

>  <butcher #P2>  (79) 
3

>  <butcher #P1'>  (79) 
0

>  <butcher #P2'>  (79) 
0

>  <butcher #P3>  (79) 
3

>  <butcher #P4>  (79) 
0

>  <butcher #P5>  (79) 
0

>  <butcher #P6>  (79) 
0

$$$$
EN300_23819
     RDKit          3D

 18 19  0  0  0  0  0  0  0  0999 V2000
    1.5590   11.2330   20.3200 C   0  0  0  0  0  0  0  0  0  0  0  0
    1.6780   11.2970   18.8040 C   0  0  2  0  0  0  0  0  0  0  0  0
    3.1710   11.1380   18.5970 C   0  0  0  0  0  0  0  0  0  0  0  0
    3.4480   12.3190   19.4060 C   0  0  0  0  0  0  0  0  0  0  0  0
    4.7380   12.3940   20.0670 C   0  0  0  0  0  0  0  0  0  0  0  0
    4.8010   13.7610   20.8290 C   0  0  0  0  0  0  0  0  0  0  0  0
    6.2610   14.3370   21.7370 S   0  0  0  0  0  6  0  0  0  0  0  0
    5.7130   15.6370   22.6550 N   0  0  0  0  0  0  0  0  0  0  0  0
    7.2640   14.8290   20.8310 O   0  0  0  0  0  0  0  0  0  0  0  0
    6.9160   13.3670   22.5810 O   0  0  0  0  0  0  0  0  0  0  0  0
    3.6480   14.6560   20.8390 C   0  0  0  0  0  0  0  0  0  0  0  0
    2.4030   14.5140   20.2020 C   0  0  0  0  0  0  0  0  0  0  0  0
    2.3380   13.2640   19.4190 C   0  0  0  0  0  0  0  0  0  0  0  0
    1.4340   12.7190   18.6460 N   0  0  0  0  0  0  0  0  0  0  0  0
    0.3590   13.1780   17.9640 C   0  0  0  0  0  0  0  0  0  0  0  0
   -0.4250   14.1330   18.5020 O   0  0  0  0  0  0  0  0  0  0  0  0
    0.0250   12.6290   16.5860 C   0  0  0  0  0  0  0  0  0  0  0  0
   -1.4470   11.6450   16.6280 Cl  0  0  0  0  0  0  0  0  0  0  0  0
  2  1  1  1
  2  3  1  0
  3  4  1  0
  4  5  2  0
  5  6  1  0
  6  7  1  0
  7  8  1  0
  7  9  2  0
  7 10  2  0
  6 11  2  0
 11 12  1  0
 12 13  2  0
 13 14  1  0
 14 15  1  0
 15 16  2  0
 15 17  1  0
 17 18  1  0
 14  2  1  0
 13  4  1  0
A    1
 C1 
A    2
 C2 
A    3
 C3 
A    4
 C4 
A    5
 C5 
A    6
 C6 
A    7
 S1 
A    8
 N1 
A    9
 O1 
A   10
 O2 
A   11
 C7 
A   12
 C8 
A   13
 C9 
A   14
 N2 
A   15
 C10
A   16
 O3 
A   17
 C11
A   18
CL1 
M  END
>  <ref_url>  (80) 
nan

>  <submitter_name>  (80) 
nan

>  <submitter_email>  (80) 
nan

>  <submitter_institution>  (80) 
nan

>  <generation_date>  (80) 
nan

>  <method>  (80) 
nan

>  <rationale>  (80) 
info info set:sulfonimide_whole;hbond:G127+E85; hydroph_interaction:V84+E85+L100+L131; 

>  <experiment>  (80) 
sulfonimide_whole

>  <cluster_label>  (80) 
17

>  <cluster_rank>  (80) 
5

>  <N_interactions>  (80) 
7

>  <∆∆G>  (80) 
-2.674577

>  <comRMSD>  (80) 
0.870788

>  <ROCS_TanimotoCombo>  (80) 
0.31

>  <ROCS_ShapeTanimoto>  (80) 
0.189

>  <ROCS_ColorTanimoto>  (80) 
0.121

>  <ref_pdb>  (80) 
A71x0310a

>  <ref_mols>  (80) 
A71x0446a,A71x1080a,A71x0812a,A71x0719a,A71x1140a,A71x0528a,A71x0310a

>  <original SMILES>  (80) 
C[C@@H]1Cc2cc(S(N)(=O)=O)ccc2N1C(=O)CCl

>  <origin>  (80) 
A71-ROCS-iter2.sdf

>  <butcher #BAD>  (80) 
3

>  <butcher #GOOD>  (80) 
15

>  <butcher #protein clash>  (80) 
2

>  <butcher #solvent space>  (80) 
1

>  <butcher #pocket>  (80) 
15

>  <butcher #P1>  (80) 
1

>  <butcher #P2>  (80) 
0

>  <butcher #P1'>  (80) 
0

>  <butcher #P2'>  (80) 
0

>  <butcher #P3>  (80) 
5

>  <butcher #P4>  (80) 
1

>  <butcher #P5>  (80) 
6

>  <butcher #P6>  (80) 
2

$$$$
Z2057686868
     RDKit          3D

 18 19  0  0  0  0  0  0  0  0999 V2000
    5.7340   12.3860   26.0870 N   0  0  0  0  0  0  0  0  0  0  0  0
    6.6890   12.2110   25.4480 C   0  0  0  0  0  0  0  0  0  0  0  0
    7.8750   11.9160   24.5870 C   0  0  0  0  0  0  0  0  0  0  0  0
    8.5620   12.8410   23.9070 C   0  0  0  0  0  0  0  0  0  0  0  0
    9.6790   12.4390   23.1050 C   0  0  0  0  0  0  0  0  0  0  0  0
   10.3820   13.3230   22.4110 C   0  0  0  0  0  0  0  0  0  0  0  0
   10.9050   14.4150   23.1070 N   0  0  0  0  0  0  0  0  0  0  0  0
   11.6190   14.3280   24.2600 C   0  0  0  0  0  0  0  0  0  0  0  0
   13.0060   14.2920   23.8220 C   0  0  1  0  0  0  0  0  0  0  0  0
   13.5270   13.0610   23.9700 F   0  0  0  0  0  0  0  0  0  0  0  0
   12.9370   14.6390   22.4170 C   0  0  0  0  0  0  0  0  0  0  0  0
   11.6680   15.1690   22.1670 C   0  0  1  0  0  0  0  0  0  0  0  0
   11.2780   15.0630   20.7010 C   0  0  0  0  0  0  0  0  0  0  0  0
   10.0810   15.7860   20.4160 O   0  0  0  0  0  0  0  0  0  0  0  0
   10.0160   11.0890   23.0560 C   0  0  0  0  0  0  0  0  0  0  0  0
    9.3190   10.1340   23.7540 C   0  0  0  0  0  0  0  0  0  0  0  0
    8.2530   10.6000   24.5080 C   0  0  0  0  0  0  0  0  0  0  0  0
    7.5390    9.7640   25.1940 F   0  0  0  0  0  0  0  0  0  0  0  0
  1  2  3  0
  2  3  1  0
  3  4  2  0
  4  5  1  0
  5  6  1  0
  6  7  1  0
  7  8  1  0
  8  9  1  0
  9 10  1  6
  9 11  1  0
 11 12  1  0
 12 13  1  6
 13 14  1  0
  5 15  2  0
 15 16  1  0
 16 17  2  0
 17 18  1  0
 17  3  1  0
 12  7  1  0
A    1
 N1 
A    2
 C1 
A    3
 C2 
A    4
 C3 
A    5
 C4 
A    6
 C5 
A    7
 N2 
A    8
 C6 
A    9
 C7 
A   10
 F1 
A   11
 C8 
A   12
 C9 
A   13
 C10
A   14
 O1 
A   15
 C11
A   16
 C12
A   17
 C13
A   18
 F2 
M  END
>  <ref_url>  (81) 
nan

>  <submitter_name>  (81) 
nan

>  <submitter_email>  (81) 
nan

>  <submitter_institution>  (81) 
nan

>  <generation_date>  (81) 
nan

>  <method>  (81) 
nan

>  <rationale>  (81) 
info info set:3d;halogenbond:S105+P107; hbond:S87; pication:H21; 

>  <experiment>  (81) 
3d

>  <cluster_label>  (81) 
12

>  <cluster_rank>  (81) 
5

>  <N_interactions>  (81) 
4

>  <∆∆G>  (81) 
-3.987594

>  <comRMSD>  (81) 
0.568536

>  <ROCS_TanimotoCombo>  (81) 
0.328

>  <ROCS_ShapeTanimoto>  (81) 
0.22

>  <ROCS_ColorTanimoto>  (81) 
0.107

>  <ref_pdb>  (81) 
A71x0310a

>  <ref_mols>  (81) 
A71x0446a,A71x1080a,A71x0812a,A71x0719a,A71x1140a,A71x0528a,A71x0310a

>  <original SMILES>  (81) 
N#Cc1cc(CN2C[C@@H](F)C[C@H]2CO)ccc1F

>  <origin>  (81) 
A71-ROCS-iter2.sdf

>  <butcher #BAD>  (81) 
0

>  <butcher #GOOD>  (81) 
18

>  <butcher #protein clash>  (81) 
0

>  <butcher #solvent space>  (81) 
0

>  <butcher #pocket>  (81) 
18

>  <butcher #P1>  (81) 
11

>  <butcher #P2>  (81) 
3

>  <butcher #P1'>  (81) 
4

>  <butcher #P2'>  (81) 
0

>  <butcher #P3>  (81) 
0

>  <butcher #P4>  (81) 
0

>  <butcher #P5>  (81) 
0

>  <butcher #P6>  (81) 
0

$$$$
EN300_279345
     RDKit          3D

 13 14  0  0  0  0  0  0  0  0999 V2000
   12.0480   13.8490   21.3610 N   0  0  0  0  0  0  0  0  0  0  0  0
   10.8310   14.6040   22.2040 S   0  0  0  0  0  6  0  0  0  0  0  0
    9.9820   15.2110   21.2010 O   0  0  0  0  0  0  0  0  0  0  0  0
   11.5900   15.3510   23.1700 O   0  0  0  0  0  0  0  0  0  0  0  0
    9.9080   13.3390   23.0500 C   0  0  0  0  0  0  0  0  0  0  0  0
    8.8920   13.7960   24.0390 C   0  0  0  0  0  0  0  0  0  0  0  0
    8.1710   12.8590   24.7110 C   0  0  0  0  0  0  0  0  0  0  0  0
    8.4420   11.4320   24.4120 C   0  0  0  0  0  0  0  0  0  0  0  0
    7.9740   10.2960   24.8370 N   0  0  0  0  0  0  0  0  0  0  0  0
    8.6750    9.3550   24.1220 N   0  0  0  0  0  0  0  0  0  0  0  0
    9.5380    9.9080   23.3000 N   0  0  0  0  0  0  0  0  0  0  0  0
    9.3890   11.2150   23.4870 N   0  0  0  0  0  0  0  0  0  0  0  0
   10.1520   12.0970   22.7770 N   0  0  0  0  0  0  0  0  0  0  0  0
  1  2  1  0
  2  3  2  0
  2  4  2  0
  2  5  1  0
  5  6  1  0
  6  7  2  0
  7  8  1  0
  8  9  2  0
  9 10  1  0
 10 11  2  0
 11 12  1  0
 12 13  1  0
 13  5  2  0
 12  8  1  0
A    1
 N1 
A    2
 S1 
A    3
 O1 
A    4
 O2 
A    5
 C1 
A    6
 C2 
A    7
 C3 
A    8
 C4 
A    9
 N2 
A   10
 N3 
A   11
 N4 
A   12
 N5 
A   13
 N6 
M  END
>  <ref_url>  (82) 
nan

>  <submitter_name>  (82) 
nan

>  <submitter_email>  (82) 
nan

>  <submitter_institution>  (82) 
nan

>  <generation_date>  (82) 
nan

>  <method>  (82) 
nan

>  <rationale>  (82) 
info info set:sulfonimide_whole;hbond:S87+S125+G127+E88; hydroph_interaction:P107; 

>  <experiment>  (82) 
sulfonimide_whole

>  <cluster_label>  (82) 
8

>  <cluster_rank>  (82) 
5

>  <N_interactions>  (82) 
5

>  <∆∆G>  (82) 
-1.668027

>  <comRMSD>  (82) 
0.452461

>  <ROCS_TanimotoCombo>  (82) 
0.355

>  <ROCS_ShapeTanimoto>  (82) 
0.199

>  <ROCS_ColorTanimoto>  (82) 
0.156

>  <ref_pdb>  (82) 
A71x0310a

>  <ref_mols>  (82) 
A71x0446a,A71x1080a,A71x0812a,A71x0719a,A71x1140a,A71x0528a,A71x0310a

>  <original SMILES>  (82) 
NS(=O)(=O)c1ccc2nnnn2n1

>  <origin>  (82) 
A71-ROCS-iter2.sdf

>  <butcher #BAD>  (82) 
1

>  <butcher #GOOD>  (82) 
12

>  <butcher #protein clash>  (82) 
0

>  <butcher #solvent space>  (82) 
1

>  <butcher #pocket>  (82) 
12

>  <butcher #P1>  (82) 
10

>  <butcher #P2>  (82) 
1

>  <butcher #P1'>  (82) 
1

>  <butcher #P2'>  (82) 
0

>  <butcher #P3>  (82) 
0

>  <butcher #P4>  (82) 
0

>  <butcher #P5>  (82) 
0

>  <butcher #P6>  (82) 
0

$$$$
Z425224490
     RDKit          3D

 23 26  0  0  0  0  0  0  0  0999 V2000
   10.1890   13.8150   24.4150 O   0  0  0  0  0  0  0  0  0  0  0  0
   10.5430   13.4820   23.2860 C   0  0  0  0  0  0  0  0  0  0  0  0
   10.0560   12.3890   22.6400 N   0  0  0  0  0  0  0  0  0  0  0  0
    9.3420   11.5490   23.3620 N   0  0  0  0  0  0  0  0  0  0  0  0
    9.5120   10.2160   23.4830 C   0  0  0  0  0  0  0  0  0  0  0  0
    8.6070    9.7270   24.2950 N   0  0  0  0  0  0  0  0  0  0  0  0
    7.8520   10.8210   24.6990 C   0  0  0  0  0  0  0  0  0  0  0  0
    6.7620   10.9100   25.5640 C   0  0  0  0  0  0  0  0  0  0  0  0
    6.2150   12.1730   25.7470 C   0  0  0  0  0  0  0  0  0  0  0  0
    6.6540   13.3460   25.1530 C   0  0  0  0  0  0  0  0  0  0  0  0
    7.7470   13.2730   24.2930 C   0  0  0  0  0  0  0  0  0  0  0  0
    8.3060   11.9920   24.1020 C   0  0  0  0  0  0  0  0  0  0  0  0
   11.5120   14.2430   22.5510 C   0  0  0  0  0  0  0  0  0  0  0  0
   12.6680   14.3350   23.2140 C   0  0  0  0  0  0  0  0  0  0  0  0
   13.8050   15.1360   22.5350 C   0  0  0  0  0  0  0  0  0  0  0  0
   13.6660   15.7130   21.3130 C   0  0  0  0  0  0  0  0  0  0  0  0
   12.4500   15.5320   20.7710 C   0  0  0  0  0  0  0  0  0  0  0  0
   11.3880   14.8580   21.3100 C   0  0  0  0  0  0  0  0  0  0  0  0
   10.2680   14.9200   20.4840 N   0  0  0  0  0  0  0  0  0  0  0  0
   10.2160   14.7400   19.1110 C   0  0  0  0  0  0  0  0  0  0  0  0
    8.7920   14.9960   18.8090 C   0  0  0  0  0  0  0  0  0  0  0  0
    8.1460   15.2990   20.1150 C   0  0  0  0  0  0  0  0  0  0  0  0
    9.0670   15.2230   21.0490 N   0  0  0  0  0  0  0  0  0  0  0  0
  1  2  2  0
  2  3  1  0
  3  4  1  0
  4  5  1  0
  5  6  2  0
  6  7  1  0
  7  8  2  0
  8  9  1  0
  9 10  2  0
 10 11  1  0
 11 12  2  0
  2 13  1  0
 13 14  2  0
 14 15  1  0
 15 16  2  0
 16 17  1  0
 17 18  2  0
 18 19  1  0
 19 20  1  0
 20 21  2  0
 21 22  1  0
 22 23  2  0
 12  4  1  0
 18 13  1  0
 23 19  1  0
 12  7  1  0
A    1
 O1 
A    2
 C1 
A    3
 N1 
A    4
 N2 
A    5
 C2 
A    6
 N3 
A    7
 C3 
A    8
 C4 
A    9
 C5 
A   10
 C6 
A   11
 C7 
A   12
 C8 
A   13
 C9 
A   14
 C10
A   15
 C11
A   16
 C12
A   17
 C13
A   18
 C14
A   19
 N4 
A   20
 C15
A   21
 C16
A   22
 C17
A   23
 N5 
M  END
>  <ref_url>  (83) 
nan

>  <submitter_name>  (83) 
nan

>  <submitter_email>  (83) 
nan

>  <submitter_institution>  (83) 
nan

>  <generation_date>  (83) 
nan

>  <method>  (83) 
nan

>  <rationale>  (83) 
info info set:screening_whole;hbond:S87+S125+G127; hydroph_interaction:Y89+Y90+H21+V84; 

>  <experiment>  (83) 
screening_whole

>  <cluster_label>  (83) 
9

>  <cluster_rank>  (83) 
5

>  <N_interactions>  (83) 
8

>  <∆∆G>  (83) 
-7.184718

>  <comRMSD>  (83) 
0.532872

>  <ROCS_TanimotoCombo>  (83) 
0.459

>  <ROCS_ShapeTanimoto>  (83) 
0.255

>  <ROCS_ColorTanimoto>  (83) 
0.204

>  <ref_pdb>  (83) 
A71x0310a

>  <ref_mols>  (83) 
A71x0446a,A71x1080a,A71x0812a,A71x0719a,A71x1140a,A71x0528a,A71x0310a

>  <original SMILES>  (83) 
O=C(Nn1cnc2ccccc21)c1ccccc1-n1cccn1

>  <origin>  (83) 
A71-ROCS-iter2.sdf

>  <butcher #BAD>  (83) 
4

>  <butcher #GOOD>  (83) 
19

>  <butcher #protein clash>  (83) 
4

>  <butcher #solvent space>  (83) 
0

>  <butcher #pocket>  (83) 
19

>  <butcher #P1>  (83) 
13

>  <butcher #P2>  (83) 
5

>  <butcher #P1'>  (83) 
1

>  <butcher #P2'>  (83) 
0

>  <butcher #P3>  (83) 
0

>  <butcher #P4>  (83) 
0

>  <butcher #P5>  (83) 
0

>  <butcher #P6>  (83) 
0

$$$$
EN300_1873712
     RDKit          3D

 18 18  0  0  0  0  0  0  0  0999 V2000
   13.4470   14.5510   20.8750 C   0  0  0  0  0  0  0  0  0  0  0  0
   12.7780   14.7560   22.0540 C   0  0  0  0  0  0  0  0  0  0  0  0
   11.9780   15.8420   22.0500 C   0  0  0  0  0  0  0  0  0  0  0  0
   13.6050   14.8450   23.3230 C   0  0  0  0  0  0  0  0  0  0  0  0
   12.0450   13.5600   22.1650 O   0  0  0  0  0  0  0  0  0  0  0  0
   11.1360   13.5200   23.1070 C   0  0  0  0  0  0  0  0  0  0  0  0
   11.2610   13.8690   24.2690 O   0  0  0  0  0  0  0  0  0  0  0  0
   10.0500   13.0280   22.5150 N   0  0  0  0  0  0  0  0  0  0  0  0
    8.9360   12.5260   23.2980 C   0  0  0  0  0  0  0  0  0  0  0  0
    7.7250   13.4440   23.2690 C   0  0  0  0  0  0  0  0  0  0  0  0
    7.2280   14.3830   21.8710 S   0  0  0  0  0  6  0  0  0  0  0  0
    6.2340   15.5780   22.5110 N   0  0  0  0  0  0  0  0  0  0  0  0
    6.3630   13.5380   21.1630 O   0  0  0  0  0  0  0  0  0  0  0  0
    8.3860   15.0020   21.2540 O   0  0  0  0  0  0  0  0  0  0  0  0
    9.2100   12.8350   24.6950 C   0  0  0  0  0  0  0  0  0  0  0  0
    8.0380   12.1160   25.3450 C   0  0  0  0  0  0  0  0  0  0  0  0
    8.1190   10.7470   24.7580 C   0  0  0  0  0  0  0  0  0  0  0  0
    9.0210   10.9920   23.5740 C   0  0  0  0  0  0  0  0  0  0  0  0
  1  2  1  0
  2  3  1  0
  2  4  1  0
  2  5  1  0
  5  6  1  0
  6  7  2  0
  6  8  1  0
  8  9  1  0
  9 10  1  0
 10 11  1  0
 11 12  1  0
 11 13  2  0
 11 14  2  0
  9 15  1  0
 15 16  1  0
 16 17  1  0
 17 18  1  0
 18  9  1  0
A    1
 C1 
A    2
 C2 
A    3
 C3 
A    4
 C4 
A    5
 O1 
A    6
 C5 
A    7
 O2 
A    8
 N1 
A    9
 C6 
A   10
 C7 
A   11
 S1 
A   12
 N2 
A   13
 O3 
A   14
 O4 
A   15
 C8 
A   16
 C9 
A   17
 C10
A   18
 C11
M  END
>  <ref_url>  (84) 
nan

>  <submitter_name>  (84) 
nan

>  <submitter_email>  (84) 
nan

>  <submitter_institution>  (84) 
nan

>  <generation_date>  (84) 
nan

>  <method>  (84) 
nan

>  <rationale>  (84) 
info info set:sulfonimide_whole;hbond:S87+S125+G127+E85; hydroph_interaction:P107+Y89+Y90; 

>  <experiment>  (84) 
sulfonimide_whole

>  <cluster_label>  (84) 
3

>  <cluster_rank>  (84) 
5

>  <N_interactions>  (84) 
8

>  <∆∆G>  (84) 
-5.42522

>  <comRMSD>  (84) 
0.899133

>  <ROCS_TanimotoCombo>  (84) 
0.377

>  <ROCS_ShapeTanimoto>  (84) 
0.208

>  <ROCS_ColorTanimoto>  (84) 
0.169

>  <ref_pdb>  (84) 
A71x0310a

>  <ref_mols>  (84) 
A71x0446a,A71x1080a,A71x0812a,A71x0719a,A71x1140a,A71x0528a,A71x0310a

>  <original SMILES>  (84) 
CC(C)(C)OC(=O)NC1(CS(N)(=O)=O)CCCC1

>  <origin>  (84) 
A71-ROCS-iter2.sdf

>  <butcher #BAD>  (84) 
2

>  <butcher #GOOD>  (84) 
16

>  <butcher #protein clash>  (84) 
2

>  <butcher #solvent space>  (84) 
0

>  <butcher #pocket>  (84) 
16

>  <butcher #P1>  (84) 
10

>  <butcher #P2>  (84) 
3

>  <butcher #P1'>  (84) 
2

>  <butcher #P2'>  (84) 
0

>  <butcher #P3>  (84) 
1

>  <butcher #P4>  (84) 
0

>  <butcher #P5>  (84) 
0

>  <butcher #P6>  (84) 
0

$$$$
EN300_228917
     RDKit          3D

 25 27  0  0  0  0  0  0  0  0999 V2000
   12.5930   17.4640   20.7650 C   0  0  0  0  0  0  0  0  0  0  0  0
   13.5390   16.3830   20.6920 C   0  0  0  0  0  0  0  0  0  0  0  0
   13.7300   15.5690   19.4450 C   0  0  0  0  0  0  0  0  0  0  0  0
   12.7710   15.5220   21.4590 C   0  0  0  0  0  0  0  0  0  0  0  0
   13.3870   14.8230   22.6460 C   0  0  0  0  0  0  0  0  0  0  0  0
   12.4070   13.8980   23.2620 C   0  0  0  0  0  0  0  0  0  0  0  0
   11.0960   13.9230   22.5600 C   0  0  0  0  0  0  0  0  0  0  0  0
   10.2770   12.9490   23.1620 C   0  0  0  0  0  0  0  0  0  0  0  0
   10.8150   11.6370   22.8080 C   0  0  0  0  0  0  0  0  0  0  0  0
   10.1660   10.3990   23.2410 C   0  0  0  0  0  0  0  0  0  0  0  0
   10.8980    9.2680   22.6050 C   0  0  0  0  0  0  0  0  0  0  0  0
   11.4480    8.3290   23.3360 F   0  0  0  0  0  0  0  0  0  0  0  0
   10.0030    8.6860   21.7980 F   0  0  0  0  0  0  0  0  0  0  0  0
   11.8890    9.7250   21.8190 F   0  0  0  0  0  0  0  0  0  0  0  0
    8.9950   10.6310   24.0480 N   0  0  0  0  0  0  0  0  0  0  0  0
    8.2440    9.7830   24.5890 N   0  0  0  0  0  0  0  0  0  0  0  0
    7.2700   10.4610   25.2020 C   0  0  0  0  0  0  0  0  0  0  0  0
    7.4850   11.9240   24.9820 C   0  0  0  0  0  0  0  0  0  0  0  0
    6.5330   12.9810   25.5160 C   0  0  0  0  0  0  0  0  0  0  0  0
    6.8080   14.1280   25.8060 O   0  0  0  0  0  0  0  0  0  0  0  0
    5.2560   12.5650   25.6170 O   0  0  0  0  0  0  0  0  0  0  0  0
    8.5970   11.9860   24.2740 C   0  0  0  0  0  0  0  0  0  0  0  0
    9.2270   13.0920   23.8400 N   0  0  0  0  0  0  0  0  0  0  0  0
   10.6370   14.6290   21.5150 C   0  0  0  0  0  0  0  0  0  0  0  0
   11.4980   15.4420   20.9570 C   0  0  0  0  0  0  0  0  0  0  0  0
  1  2  1  0
  2  3  1  0
  2  4  1  0
  4  5  2  0
  5  6  1  0
  6  7  2  0
  7  8  1  0
  8  9  1  0
  9 10  2  0
 10 11  1  0
 11 12  1  0
 11 13  1  0
 11 14  1  0
 10 15  1  0
 15 16  1  0
 16 17  2  0
 17 18  1  0
 18 19  1  0
 19 20  2  0
 19 21  1  0
 18 22  2  0
 22 23  1  0
  7 24  1  0
 24 25  2  0
 25  4  1  0
 23  8  2  0
 22 15  1  0
A    1
 C1 
A    2
 C2 
A    3
 C3 
A    4
 C4 
A    5
 C5 
A    6
 C6 
A    7
 C7 
A    8
 C8 
A    9
 C9 
A   10
 C10
A   11
 C11
A   12
 F1 
A   13
 F2 
A   14
 F3 
A   15
 N1 
A   16
 N2 
A   17
 C12
A   18
 C13
A   19
 C14
A   20
 O1 
A   21
 O2 
A   22
 C15
A   23
 N3 
A   24
 C16
A   25
 C17
M  END
>  <ref_url>  (85) 
nan

>  <submitter_name>  (85) 
nan

>  <submitter_email>  (85) 
nan

>  <submitter_institution>  (85) 
nan

>  <generation_date>  (85) 
nan

>  <method>  (85) 
nan

>  <rationale>  (85) 
info info set:bb_whole;halogenbond:T126; hbond:S87+G127; hydroph_interaction:Y89+Y90+H21+D39; 

>  <experiment>  (85) 
bb_whole

>  <cluster_label>  (85) 
7

>  <cluster_rank>  (85) 
5

>  <N_interactions>  (85) 
8

>  <∆∆G>  (85) 
-0.347927

>  <comRMSD>  (85) 
0.971669

>  <ROCS_TanimotoCombo>  (85) 
0.415

>  <ROCS_ShapeTanimoto>  (85) 
0.263

>  <ROCS_ColorTanimoto>  (85) 
0.153

>  <ref_pdb>  (85) 
A71x0310a

>  <ref_mols>  (85) 
A71x0446a,A71x1080a,A71x0812a,A71x0719a,A71x1140a,A71x0528a,A71x0310a

>  <original SMILES>  (85) 
CC(C)c1ccc(-c2cc(C(F)(F)F)n3ncc(C(=O)O)c3n2)cc1

>  <origin>  (85) 
A71-ROCS-iter2.sdf

>  <butcher #BAD>  (85) 
8

>  <butcher #GOOD>  (85) 
17

>  <butcher #protein clash>  (85) 
7

>  <butcher #solvent space>  (85) 
1

>  <butcher #pocket>  (85) 
17

>  <butcher #P1>  (85) 
12

>  <butcher #P2>  (85) 
2

>  <butcher #P1'>  (85) 
2

>  <butcher #P2'>  (85) 
0

>  <butcher #P3>  (85) 
1

>  <butcher #P4>  (85) 
0

>  <butcher #P5>  (85) 
0

>  <butcher #P6>  (85) 
0

$$$$
Z324800370
     RDKit          3D

 21 23  0  0  0  0  0  0  0  0999 V2000
    3.5190   12.8150   30.4440 C   0  0  0  0  0  0  0  0  0  0  0  0
    4.3300   12.1920   29.2950 C   0  0  0  0  0  0  0  0  0  0  0  0
    3.7880   10.8650   28.7860 C   0  0  0  0  0  0  0  0  0  0  0  0
    4.5400   10.1990   27.6540 C   0  0  0  0  0  0  0  0  0  0  0  0
    5.7850   10.9150   27.0990 C   0  0  0  0  0  0  0  0  0  0  0  0
    6.4330   10.3010   26.0680 N   0  0  0  0  0  0  0  0  0  0  0  0
    7.3580   10.9290   25.2650 C   0  0  0  0  0  0  0  0  0  0  0  0
    7.3240   12.2600   25.0900 N   0  0  0  0  0  0  0  0  0  0  0  0
    8.2400   12.8440   24.3040 C   0  0  0  0  0  0  0  0  0  0  0  0
    9.3300   12.0610   23.5950 C   0  0  0  0  0  0  0  0  0  0  0  0
   10.3210   12.6650   22.7600 N   0  0  0  0  0  4  0  0  0  0  0  0
    9.9060   13.4120   21.8690 O   0  0  0  0  0  0  0  0  0  0  0  0
   11.4470   12.7780   23.2590 O   0  0  0  0  0  1  0  0  0  0  0  0
    9.2290   10.5910   23.8910 C   0  0  0  0  0  0  0  0  0  0  0  0
   10.1720    9.7410   23.3200 N   0  0  0  0  0  0  0  0  0  0  0  0
    9.8110    8.7460   22.5710 C   0  0  0  0  0  0  0  0  0  0  0  0
   10.4490    8.4050   21.3270 C   0  0  0  0  0  0  0  0  0  0  0  0
   10.8780    7.5520   22.3610 C   0  0  0  0  0  0  0  0  0  0  0  0
    8.2600   10.1080   24.6940 N   0  0  0  0  0  0  0  0  0  0  0  0
    6.1630   12.1310   27.6760 C   0  0  0  0  0  0  0  0  0  0  0  0
    5.4770   12.7600   28.7320 C   0  0  0  0  0  0  0  0  0  0  0  0
  1  2  1  0
  2  3  2  0
  3  4  1  0
  4  5  2  0
  5  6  1  0
  6  7  1  0
  7  8  2  0
  8  9  1  0
  9 10  2  0
 10 11  1  0
 11 12  2  0
 11 13  1  0
 10 14  1  0
 14 15  1  0
 15 16  1  0
 16 17  1  0
 17 18  1  0
 14 19  2  0
  5 20  1  0
 20 21  2  0
 21  2  1  0
 19  7  1  0
 18 16  1  0
M  CHG  2  11   1  13  -1
A    1
 C1 
A    2
 C2 
A    3
 C3 
A    4
 C4 
A    5
 C5 
A    6
 N1 
A    7
 C6 
A    8
 N2 
A    9
 C7 
A   10
 C8 
A   11
 N3 
A   12
 O1 
A   13
 O2 
A   14
 C9 
A   15
 N4 
A   16
 C10
A   17
 C11
A   18
 C12
A   19
 N5 
A   20
 C13
A   21
 C14
M  END
>  <ref_url>  (86) 
nan

>  <submitter_name>  (86) 
nan

>  <submitter_email>  (86) 
nan

>  <submitter_institution>  (86) 
nan

>  <generation_date>  (86) 
nan

>  <method>  (86) 
nan

>  <rationale>  (86) 
info info set:screening_pocket;hbond:S105+G127+P107; hydroph_interaction:V124+D109; 

>  <experiment>  (86) 
screening_pocket

>  <cluster_label>  (86) 
11

>  <cluster_rank>  (86) 
6

>  <N_interactions>  (86) 
5

>  <∆∆G>  (86) 
-0.93309

>  <comRMSD>  (86) 
0.652126

>  <ROCS_TanimotoCombo>  (86) 
0.627

>  <ROCS_ShapeTanimoto>  (86) 
0.255

>  <ROCS_ColorTanimoto>  (86) 
0.372

>  <ref_pdb>  (86) 
A71x0310a

>  <ref_mols>  (86) 
A71x0446a,A71x1080a,A71x0812a,A71x0719a,A71x1140a,A71x0528a,A71x0310a

>  <original SMILES>  (86) 
Cc1ccc(Nc2ncc([N+](=O)[O-])c(NC3CC3)n2)cc1

>  <origin>  (86) 
A71-ROCS-iter2.sdf

>  <butcher #BAD>  (86) 
10

>  <butcher #GOOD>  (86) 
11

>  <butcher #protein clash>  (86) 
3

>  <butcher #solvent space>  (86) 
7

>  <butcher #pocket>  (86) 
11

>  <butcher #P1>  (86) 
11

>  <butcher #P2>  (86) 
0

>  <butcher #P1'>  (86) 
0

>  <butcher #P2'>  (86) 
0

>  <butcher #P3>  (86) 
0

>  <butcher #P4>  (86) 
0

>  <butcher #P5>  (86) 
0

>  <butcher #P6>  (86) 
0

$$$$
Z94598474
     RDKit          3D

 17 18  0  0  0  0  0  0  0  0999 V2000
   10.0910   13.7250   21.1990 O   0  0  0  0  0  0  0  0  0  0  0  0
   10.0080   13.8450   22.6230 S   0  0  0  0  0  6  0  0  0  0  0  0
    9.0810   14.7500   23.1540 O   0  0  0  0  0  0  0  0  0  0  0  0
    9.3130   12.4450   23.4480 C   0  0  0  0  0  0  0  0  0  0  0  0
    8.3610   12.8490   24.3720 C   0  0  0  0  0  0  0  0  0  0  0  0
    7.6510   11.7740   25.1680 C   0  0  0  0  0  0  0  0  0  0  0  0
    6.7250   12.1130   26.0720 F   0  0  0  0  0  0  0  0  0  0  0  0
    7.9640   10.4410   24.9580 C   0  0  0  0  0  0  0  0  0  0  0  0
    8.9230   10.0560   24.0280 C   0  0  0  0  0  0  0  0  0  0  0  0
    9.6490   11.1080   23.2180 C   0  0  0  0  0  0  0  0  0  0  0  0
   10.5460   10.7020   22.3460 F   0  0  0  0  0  0  0  0  0  0  0  0
   11.6080   14.1150   23.1950 N   0  0  0  0  0  0  0  0  0  0  0  0
   12.0360   15.3100   23.4880 C   0  0  0  0  0  0  0  0  0  0  0  0
   12.0550   16.1810   22.2380 C   0  0  0  0  0  0  0  0  0  0  0  0
   13.0760   15.7590   21.4150 N   0  0  0  0  0  0  0  0  0  0  0  0
   12.6710   14.4570   20.9900 C   0  0  0  0  0  0  0  0  0  0  0  0
   12.5480   13.5360   22.2080 C   0  0  0  0  0  0  0  0  0  0  0  0
  1  2  2  0
  2  3  2  0
  2  4  1  0
  4  5  2  0
  5  6  1  0
  6  7  1  0
  6  8  2  0
  8  9  1  0
  9 10  2  0
 10 11  1  0
  2 12  1  0
 12 13  1  0
 13 14  1  0
 14 15  1  0
 15 16  1  0
 16 17  1  0
 10  4  1  0
 17 12  1  0
A    1
 O1 
A    2
 S1 
A    3
 O2 
A    4
 C1 
A    5
 C2 
A    6
 C3 
A    7
 F1 
A    8
 C4 
A    9
 C5 
A   10
 C6 
A   11
 F2 
A   12
 N1 
A   13
 C7 
A   14
 C8 
A   15
 N2 
A   16
 C9 
A   17
 C10
M  END
>  <ref_url>  (87) 
nan

>  <submitter_name>  (87) 
nan

>  <submitter_email>  (87) 
nan

>  <submitter_institution>  (87) 
nan

>  <generation_date>  (87) 
nan

>  <method>  (87) 
nan

>  <rationale>  (87) 
info info set:3d;halogenbond:C110; hbond:S87; 

>  <experiment>  (87) 
3d

>  <cluster_label>  (87) 
2

>  <cluster_rank>  (87) 
6

>  <N_interactions>  (87) 
2

>  <∆∆G>  (87) 
-0.308329

>  <comRMSD>  (87) 
0.713969

>  <ROCS_TanimotoCombo>  (87) 
0.312

>  <ROCS_ShapeTanimoto>  (87) 
0.214

>  <ROCS_ColorTanimoto>  (87) 
0.098

>  <ref_pdb>  (87) 
A71x0310a

>  <ref_mols>  (87) 
A71x0446a,A71x1080a,A71x0812a,A71x0719a,A71x1140a,A71x0528a,A71x0310a

>  <original SMILES>  (87) 
O=S(=O)(c1cc(F)ccc1F)N1CCNCC1

>  <origin>  (87) 
A71-ROCS-iter2.sdf

>  <butcher #BAD>  (87) 
2

>  <butcher #GOOD>  (87) 
15

>  <butcher #protein clash>  (87) 
0

>  <butcher #solvent space>  (87) 
2

>  <butcher #pocket>  (87) 
15

>  <butcher #P1>  (87) 
13

>  <butcher #P2>  (87) 
1

>  <butcher #P1'>  (87) 
1

>  <butcher #P2'>  (87) 
0

>  <butcher #P3>  (87) 
0

>  <butcher #P4>  (87) 
0

>  <butcher #P5>  (87) 
0

>  <butcher #P6>  (87) 
0

$$$$
EN300_244391
     RDKit          3D

 15 15  0  0  0  0  0  0  0  0999 V2000
    0.1320   11.4480   16.5600 C   0  0  0  0  0  0  0  0  0  0  0  0
    0.6150   12.7630   16.6440 O   0  0  0  0  0  0  0  0  0  0  0  0
    1.6510   12.9280   17.6080 C   0  0  0  0  0  0  0  0  0  0  0  0
    2.9250   12.4280   17.2340 C   0  0  0  0  0  0  0  0  0  0  0  0
    3.8030   12.6870   18.2550 C   0  0  0  0  0  0  0  0  0  0  0  0
    3.6290   13.3470   19.5570 C   0  0  0  0  0  0  0  0  0  0  0  0
    4.8220   13.5050   20.4640 C   0  0  0  0  0  0  0  0  0  0  0  0
    4.7300   14.2560   21.5690 N   0  0  0  0  0  0  0  0  0  0  0  0
    6.2420   14.5990   22.2230 S   0  0  0  0  0  6  0  0  0  0  0  0
    6.6410   15.7000   20.9340 C   0  0  0  0  0  0  0  0  0  0  0  0
    6.1020   15.2530   23.5020 O   0  0  0  0  0  0  0  0  0  0  0  0
    7.1440   13.4810   22.0420 O   0  0  0  0  0  0  0  0  0  0  0  0
    2.3770   13.7870   19.8520 C   0  0  0  0  0  0  0  0  0  0  0  0
    1.3140   13.5710   18.8180 C   0  0  0  0  0  0  0  0  0  0  0  0
    0.0090   14.0150   19.0590 N   0  0  0  0  0  0  0  0  0  0  0  0
  1  2  1  0
  2  3  1  0
  3  4  2  0
  4  5  1  0
  5  6  2  0
  6  7  1  0
  7  8  1  0
  8  9  1  0
  9 10  1  0
  9 11  2  0
  9 12  2  0
  6 13  1  0
 13 14  2  0
 14 15  1  0
 14  3  1  0
A    1
 C1 
A    2
 O1 
A    3
 C2 
A    4
 C3 
A    5
 C4 
A    6
 C5 
A    7
 C6 
A    8
 N1 
A    9
 S1 
A   10
 C7 
A   11
 O2 
A   12
 O3 
A   13
 C8 
A   14
 C9 
A   15
 N2 
M  END
>  <ref_url>  (88) 
nan

>  <submitter_name>  (88) 
nan

>  <submitter_email>  (88) 
nan

>  <submitter_institution>  (88) 
nan

>  <generation_date>  (88) 
nan

>  <method>  (88) 
nan

>  <rationale>  (88) 
info info set:sulfonimide_whole;hbond:G127+E85; hydroph_interaction:V84+L100+I82; 

>  <experiment>  (88) 
sulfonimide_whole

>  <cluster_label>  (88) 
15

>  <cluster_rank>  (88) 
6

>  <N_interactions>  (88) 
7

>  <∆∆G>  (88) 
-5.476799

>  <comRMSD>  (88) 
0.747754

>  <ROCS_TanimotoCombo>  (88) 
0.298

>  <ROCS_ShapeTanimoto>  (88) 
0.17

>  <ROCS_ColorTanimoto>  (88) 
0.127

>  <ref_pdb>  (88) 
A71x0310a

>  <ref_mols>  (88) 
A71x0446a,A71x1080a,A71x0812a,A71x0719a,A71x1140a,A71x0528a,A71x0310a

>  <original SMILES>  (88) 
COc1ccc(CNS(C)(=O)=O)cc1N

>  <origin>  (88) 
A71-ROCS-iter2.sdf

>  <butcher #BAD>  (88) 
3

>  <butcher #GOOD>  (88) 
12

>  <butcher #protein clash>  (88) 
3

>  <butcher #solvent space>  (88) 
0

>  <butcher #pocket>  (88) 
12

>  <butcher #P1>  (88) 
1

>  <butcher #P2>  (88) 
0

>  <butcher #P1'>  (88) 
0

>  <butcher #P2'>  (88) 
0

>  <butcher #P3>  (88) 
5

>  <butcher #P4>  (88) 
2

>  <butcher #P5>  (88) 
2

>  <butcher #P6>  (88) 
2

$$$$
Z8525314575
     RDKit          3D

 16 17  0  0  0  0  0  0  0  0999 V2000
   13.2590   14.8740   22.4900 C   0  0  0  0  0  0  0  0  0  0  0  0
   11.7940   14.9470   22.0700 C   0  0  2  0  0  0  0  0  0  0  0  0
   11.8010   13.4720   21.7590 C   0  0  1  0  0  0  0  0  0  0  0  0
   10.8110   12.5300   22.5260 C   0  0  0  0  0  0  0  0  0  0  0  0
   10.7050   11.1590   22.1520 O   0  0  0  0  0  0  0  0  0  0  0  0
   10.0940   13.0520   23.5120 N   0  0  0  0  0  0  0  0  0  0  0  0
    9.1350   12.2880   24.1540 C   0  0  0  0  0  0  0  0  0  0  0  0
    8.1940   13.0230   25.0260 C   0  0  0  0  0  0  0  0  0  0  0  0
    7.0170   12.4820   25.8870 C   0  0  0  0  0  0  0  0  0  0  0  0
    7.1320   10.9310   25.5430 C   0  0  0  0  0  0  0  0  0  0  0  0
    6.2000   10.1310   26.1610 N   0  0  0  0  0  0  0  0  0  0  0  0
    8.0000   10.2790   24.7370 N   0  0  0  0  0  0  0  0  0  0  0  0
    8.9660   10.9300   24.0690 C   0  0  0  0  0  0  0  0  0  0  0  0
   11.3590   14.4730   20.7460 C   0  0  0  0  0  0  0  0  0  0  0  0
   12.1190   14.6870   19.6190 F   0  0  0  0  0  0  0  0  0  0  0  0
   10.0390   14.5940   20.3650 F   0  0  0  0  0  0  0  0  0  0  0  0
  2  1  1  6
  2  3  1  0
  3  4  1  1
  4  5  2  0
  4  6  1  0
  6  7  1  0
  7  8  2  0
  8  9  1  0
  9 10  2  0
 10 11  1  0
 10 12  1  0
 12 13  2  0
  3 14  1  0
 14 15  1  0
 14 16  1  0
 14  2  1  0
 13  7  1  0
A    1
 C1 
A    2
 C2 
A    3
 C3 
A    4
 C4 
A    5
 O1 
A    6
 N1 
A    7
 C5 
A    8
 C6 
A    9
 C7 
A   10
 C8 
A   11
 N2 
A   12
 N3 
A   13
 C9 
A   14
 C10
A   15
 F1 
A   16
 F2 
M  END
>  <ref_url>  (89) 
nan

>  <submitter_name>  (89) 
nan

>  <submitter_email>  (89) 
nan

>  <submitter_institution>  (89) 
nan

>  <generation_date>  (89) 
nan

>  <method>  (89) 
nan

>  <rationale>  (89) 
info info set:screening_pocket;halogenbond:D39; hbond:S105; hydroph_interaction:P107+Y89; 

>  <experiment>  (89) 
screening_pocket

>  <cluster_label>  (89) 
18

>  <cluster_rank>  (89) 
6

>  <N_interactions>  (89) 
4

>  <∆∆G>  (89) 
-1.878116

>  <comRMSD>  (89) 
0.755596

>  <ROCS_TanimotoCombo>  (89) 
0.637

>  <ROCS_ShapeTanimoto>  (89) 
0.211

>  <ROCS_ColorTanimoto>  (89) 
0.425

>  <ref_pdb>  (89) 
A71x0310a

>  <ref_mols>  (89) 
A71x0446a,A71x1080a,A71x0812a,A71x0719a,A71x1140a,A71x0528a,A71x0310a

>  <original SMILES>  (89) 
C[C@@H]1[C@@H](C(=O)Nc2ccc(N)nc2)C1(F)F

>  <origin>  (89) 
A71-ROCS-iter2.sdf

>  <butcher #BAD>  (89) 
2

>  <butcher #GOOD>  (89) 
14

>  <butcher #protein clash>  (89) 
1

>  <butcher #solvent space>  (89) 
1

>  <butcher #pocket>  (89) 
14

>  <butcher #P1>  (89) 
10

>  <butcher #P2>  (89) 
3

>  <butcher #P1'>  (89) 
1

>  <butcher #P2'>  (89) 
0

>  <butcher #P3>  (89) 
0

>  <butcher #P4>  (89) 
0

>  <butcher #P5>  (89) 
0

>  <butcher #P6>  (89) 
0

$$$$
Z2061495052
     RDKit          3D

 22 24  0  0  0  0  0  0  0  0999 V2000
    7.3740   14.8700   25.6610 C   0  0  0  0  0  0  0  0  0  0  0  0
    7.9250   13.4680   25.7640 C   0  0  2  0  0  0  0  0  0  0  0  0
    9.1280   13.1930   24.8580 C   0  0  0  0  0  0  0  0  0  0  0  0
    8.8310   12.9800   23.6290 N   0  0  0  0  0  0  0  0  0  0  0  0
    9.8580   12.4640   22.9910 C   0  0  0  0  0  0  0  0  0  0  0  0
    9.8760   11.2070   22.4780 O   0  0  0  0  0  0  0  0  0  0  0  0
   11.0780   13.3960   22.9250 C   0  0  0  0  0  0  0  0  0  0  0  0
   12.1950   12.4260   23.1290 C   0  0  0  0  0  0  0  0  0  0  0  0
   13.4640   13.1290   23.1240 C   0  0  0  0  0  0  0  0  0  0  0  0
   14.5760   12.2770   23.3580 C   0  0  0  0  0  0  0  0  0  0  0  0
   15.9160   12.7920   23.3170 C   0  0  0  0  0  0  0  0  0  0  0  0
   16.0820   14.2680   23.0480 C   0  0  0  0  0  0  0  0  0  0  0  0
   14.8550   14.9520   22.8720 C   0  0  0  0  0  0  0  0  0  0  0  0
   13.5770   14.4350   22.9170 C   0  0  0  0  0  0  0  0  0  0  0  0
   12.4380   15.2250   22.7740 C   0  0  0  0  0  0  0  0  0  0  0  0
   12.5060   16.4170   22.7060 O   0  0  0  0  0  0  0  0  0  0  0  0
   11.1660   14.6720   22.7640 O   0  0  0  0  0  0  0  0  0  0  0  0
    7.5720   12.3880   23.7570 C   0  0  0  0  0  0  0  0  0  0  0  0
    7.0330   12.4000   25.1860 C   0  0  1  0  0  0  0  0  0  0  0  0
    7.2220   11.0790   25.5630 C   0  0  0  0  0  0  0  0  0  0  0  0
    6.3300   10.5460   26.4430 N   0  0  0  0  0  0  0  0  0  0  0  0
    8.1180   10.3690   25.1320 O   0  0  0  0  0  0  0  0  0  0  0  0
  2  1  1  6
  2  3  1  0
  3  4  1  0
  4  5  1  0
  5  6  2  0
  5  7  1  0
  7  8  2  0
  8  9  1  0
  9 10  2  0
 10 11  1  0
 11 12  2  0
 12 13  1  0
 13 14  2  0
 14 15  1  0
 15 16  2  0
 15 17  1  0
  4 18  1  0
 18 19  1  0
 19 20  1  1
 20 21  1  0
 20 22  2  0
 19  2  1  0
 17  7  1  0
 14  9  1  0
A    1
 C1 
A    2
 C2 
A    3
 C3 
A    4
 N1 
A    5
 C4 
A    6
 O1 
A    7
 C5 
A    8
 C6 
A    9
 C7 
A   10
 C8 
A   11
 C9 
A   12
 C10
A   13
 C11
A   14
 C12
A   15
 C13
A   16
 O2 
A   17
 O3 
A   18
 C14
A   19
 C15
A   20
 C16
A   21
 N2 
A   22
 O4 
M  END
>  <ref_url>  (90) 
nan

>  <submitter_name>  (90) 
nan

>  <submitter_email>  (90) 
nan

>  <submitter_institution>  (90) 
nan

>  <generation_date>  (90) 
nan

>  <method>  (90) 
nan

>  <rationale>  (90) 
info info set:screening_pocket;hbond:S87+S105; hydroph_interaction:P107+Y89+H21+L22; 

>  <experiment>  (90) 
screening_pocket

>  <cluster_label>  (90) 
16

>  <cluster_rank>  (90) 
6

>  <N_interactions>  (90) 
6

>  <∆∆G>  (90) 
-0.179432

>  <comRMSD>  (90) 
0.852833

>  <ROCS_TanimotoCombo>  (90) 
0.633

>  <ROCS_ShapeTanimoto>  (90) 
0.218

>  <ROCS_ColorTanimoto>  (90) 
0.414

>  <ref_pdb>  (90) 
A71x0310a

>  <ref_mols>  (90) 
A71x0446a,A71x1080a,A71x0812a,A71x0719a,A71x1140a,A71x0528a,A71x0310a

>  <original SMILES>  (90) 
C[C@@H]1CN(C(=O)c2cc3ccccc3c(=O)o2)C[C@H]1C(N)=O

>  <origin>  (90) 
A71-ROCS-iter2.sdf

>  <butcher #BAD>  (90) 
6

>  <butcher #GOOD>  (90) 
16

>  <butcher #protein clash>  (90) 
6

>  <butcher #solvent space>  (90) 
0

>  <butcher #pocket>  (90) 
16

>  <butcher #P1>  (90) 
14

>  <butcher #P2>  (90) 
0

>  <butcher #P1'>  (90) 
2

>  <butcher #P2'>  (90) 
0

>  <butcher #P3>  (90) 
0

>  <butcher #P4>  (90) 
0

>  <butcher #P5>  (90) 
0

>  <butcher #P6>  (90) 
0

$$$$
EN300_52071
     RDKit          3D

 15 16  0  0  0  0  0  0  0  0999 V2000
    6.3300   15.6760   21.2180 C   0  0  0  0  0  0  0  0  0  0  0  0
    7.4710   14.6270   21.9790 S   0  0  0  0  0  6  0  0  0  0  0  0
    8.8240   14.9160   21.5440 O   0  0  0  0  0  0  0  0  0  0  0  0
    6.8380   13.3460   21.6970 O   0  0  0  0  0  0  0  0  0  0  0  0
    7.1200   15.0500   23.5940 N   0  0  0  0  0  0  0  0  0  0  0  0
    6.8890   13.9420   24.3130 C   0  0  0  0  0  0  0  0  0  0  0  0
    5.7210   13.9170   25.3150 C   0  0  0  0  0  0  0  0  0  0  0  0
    5.4440   12.6280   26.1200 C   0  0  0  0  0  0  0  0  0  0  0  0
    6.3680   11.4240   25.8430 C   0  0  0  0  0  0  0  0  0  0  0  0
    7.5230   11.4600   24.8400 C   0  0  0  0  0  0  0  0  0  0  0  0
    7.7630   12.7610   24.1030 C   0  0  0  0  0  0  0  0  0  0  0  0
    8.9110   12.8010   23.1480 C   0  0  0  0  0  0  0  0  0  0  0  0
    9.7900   11.7030   23.6140 C   0  0  0  0  0  0  0  0  0  0  0  0
    9.2590   10.3780   23.5040 N   0  0  0  0  0  0  0  0  0  0  0  0
    8.3460   10.2710   24.6200 C   0  0  0  0  0  0  0  0  0  0  0  0
  1  2  1  0
  2  3  2  0
  2  4  2  0
  2  5  1  0
  5  6  1  0
  6  7  2  0
  7  8  1  0
  8  9  2  0
  9 10  1  0
 10 11  2  0
 11 12  1  0
 12 13  1  0
 13 14  1  0
 14 15  1  0
 11  6  1  0
 15 10  1  0
A    1
 C1 
A    2
 S1 
A    3
 O1 
A    4
 O2 
A    5
 N1 
A    6
 C2 
A    7
 C3 
A    8
 C4 
A    9
 C5 
A   10
 C6 
A   11
 C7 
A   12
 C8 
A   13
 C9 
A   14
 N2 
A   15
 C10
M  END
>  <ref_url>  (91) 
nan

>  <submitter_name>  (91) 
nan

>  <submitter_email>  (91) 
nan

>  <submitter_institution>  (91) 
nan

>  <generation_date>  (91) 
nan

>  <method>  (91) 
nan

>  <rationale>  (91) 
info info set:sulfonimide_whole;hbond:S87+G127+E106; 

>  <experiment>  (91) 
sulfonimide_whole

>  <cluster_label>  (91) 
6

>  <cluster_rank>  (91) 
6

>  <N_interactions>  (91) 
3

>  <∆∆G>  (91) 
-0.344887

>  <comRMSD>  (91) 
0.462288

>  <ROCS_TanimotoCombo>  (91) 
0.364

>  <ROCS_ShapeTanimoto>  (91) 
0.2

>  <ROCS_ColorTanimoto>  (91) 
0.164

>  <ref_pdb>  (91) 
A71x0310a

>  <ref_mols>  (91) 
A71x0446a,A71x1080a,A71x0812a,A71x0719a,A71x1140a,A71x0528a,A71x0310a

>  <original SMILES>  (91) 
CS(=O)(=O)Nc1cccc2c1CCNC2

>  <origin>  (91) 
A71-ROCS-iter2.sdf

>  <butcher #BAD>  (91) 
2

>  <butcher #GOOD>  (91) 
13

>  <butcher #protein clash>  (91) 
1

>  <butcher #solvent space>  (91) 
1

>  <butcher #pocket>  (91) 
13

>  <butcher #P1>  (91) 
9

>  <butcher #P2>  (91) 
2

>  <butcher #P1'>  (91) 
0

>  <butcher #P2'>  (91) 
0

>  <butcher #P3>  (91) 
2

>  <butcher #P4>  (91) 
0

>  <butcher #P5>  (91) 
0

>  <butcher #P6>  (91) 
0

$$$$
Z184883800
     RDKit          3D

 18 19  0  0  0  0  0  0  0  0999 V2000
   10.5860   11.0160   22.1130 O   0  0  0  0  0  0  0  0  0  0  0  0
   10.3360   11.9780   22.7890 C   0  0  0  0  0  0  0  0  0  0  0  0
   10.9780   13.2970   22.7610 N   0  0  0  0  0  0  0  0  0  0  0  0
   11.6980   13.7500   21.6210 C   0  0  0  0  0  0  0  0  0  0  0  0
   12.4370   14.9230   21.7870 C   0  0  0  0  0  0  0  0  0  0  0  0
   12.6800   15.0230   23.1860 C   0  0  0  0  0  0  0  0  0  0  0  0
   13.7710   14.4930   23.7610 C   0  0  0  0  0  0  0  0  0  0  0  0
   13.9740   14.6050   25.0910 C   0  0  0  0  0  0  0  0  0  0  0  0
   13.0930   15.2230   25.8790 C   0  0  0  0  0  0  0  0  0  0  0  0
   11.8590   15.7750   25.1630 C   0  0  0  0  0  0  0  0  0  0  0  0
   11.7500   15.6480   23.8440 N   0  0  0  0  0  0  0  0  0  0  0  0
    9.2680   11.7380   23.7450 C   0  0  0  0  0  0  0  0  0  0  0  0
    8.5200   12.7960   24.4060 C   0  0  0  0  0  0  0  0  0  0  0  0
    7.5180   12.4170   25.3040 C   0  0  0  0  0  0  0  0  0  0  0  0
    7.2860   11.0630   25.5220 C   0  0  0  0  0  0  0  0  0  0  0  0
    7.9790   10.0870   24.9100 N   0  0  0  0  0  0  0  0  0  0  0  0
    8.9430   10.4260   24.0430 C   0  0  0  0  0  0  0  0  0  0  0  0
    9.5760    9.3500   23.4810 O   0  0  0  0  0  0  0  0  0  0  0  0
  1  2  2  0
  2  3  1  0
  3  4  1  0
  4  5  1  0
  5  6  1  0
  6  7  2  0
  7  8  1  0
  8  9  2  0
  9 10  1  0
 10 11  2  0
  2 12  1  0
 12 13  2  0
 13 14  1  0
 14 15  2  0
 15 16  1  0
 16 17  2  0
 17 18  1  0
 11  6  1  0
 17 12  1  0
A    1
 O1 
A    2
 C1 
A    3
 N1 
A    4
 C2 
A    5
 C3 
A    6
 C4 
A    7
 C5 
A    8
 C6 
A    9
 C7 
A   10
 C8 
A   11
 N2 
A   12
 C9 
A   13
 C10
A   14
 C11
A   15
 C12
A   16
 N3 
A   17
 C13
A   18
 O2 
M  END
>  <ref_url>  (92) 
nan

>  <submitter_name>  (92) 
nan

>  <submitter_email>  (92) 
nan

>  <submitter_institution>  (92) 
nan

>  <generation_date>  (92) 
nan

>  <method>  (92) 
nan

>  <rationale>  (92) 
info info set:screening_pocket;hbond:E88; hydroph_interaction:P107+Y89+E88; 

>  <experiment>  (92) 
screening_pocket

>  <cluster_label>  (92) 
12

>  <cluster_rank>  (92) 
6

>  <N_interactions>  (92) 
5

>  <∆∆G>  (92) 
-1.877417

>  <comRMSD>  (92) 
0.873357

>  <ROCS_TanimotoCombo>  (92) 
0.652

>  <ROCS_ShapeTanimoto>  (92) 
0.222

>  <ROCS_ColorTanimoto>  (92) 
0.43

>  <ref_pdb>  (92) 
A71x0310a

>  <ref_mols>  (92) 
A71x0446a,A71x1080a,A71x0812a,A71x0719a,A71x1140a,A71x0528a,A71x0310a

>  <original SMILES>  (92) 
O=C(NCCc1ccccn1)c1cccnc1O

>  <origin>  (92) 
A71-ROCS-iter2.sdf

>  <butcher #BAD>  (92) 
1

>  <butcher #GOOD>  (92) 
17

>  <butcher #protein clash>  (92) 
1

>  <butcher #solvent space>  (92) 
0

>  <butcher #pocket>  (92) 
17

>  <butcher #P1>  (92) 
10

>  <butcher #P2>  (92) 
0

>  <butcher #P1'>  (92) 
7

>  <butcher #P2'>  (92) 
0

>  <butcher #P3>  (92) 
0

>  <butcher #P4>  (92) 
0

>  <butcher #P5>  (92) 
0

>  <butcher #P6>  (92) 
0

$$$$
EN300_12622197
     RDKit          3D

 20 21  0  0  0  0  0  0  0  0999 V2000
    3.8530    9.5510   18.2960 C   0  0  0  0  0  0  0  0  0  0  0  0
    3.2760   10.8020   18.8590 C   0  0  0  0  0  0  0  0  0  0  0  0
    4.3490   11.5100   19.5490 C   0  0  0  0  0  0  0  0  0  0  0  0
    4.0580   12.8400   20.2280 C   0  0  0  0  0  0  0  0  0  0  0  0
    5.1320   13.7130   21.0110 B   0  0  0  0  0  0  0  0  0  0  0  0
    4.8620   14.2680   22.3400 O   0  0  0  0  0  0  0  0  0  0  0  0
    6.0500   14.7270   22.7700 C   0  0  0  0  0  0  0  0  0  0  0  0
    6.0640   15.0450   24.3020 C   0  0  0  0  0  0  0  0  0  0  0  0
    6.2210   15.8720   21.9330 C   0  0  0  0  0  0  0  0  0  0  0  0
    7.0690   13.7990   22.2780 C   0  0  0  0  0  0  0  0  0  0  0  0
    8.0010   13.0340   23.2520 C   0  0  0  0  0  0  0  0  0  0  0  0
    8.5130   14.2010   22.1710 C   0  0  0  0  0  0  0  0  0  0  0  0
    6.5120   13.1920   21.2160 O   0  0  0  0  0  0  0  0  0  0  0  0
    2.7300   13.2810   20.1490 C   0  0  0  0  0  0  0  0  0  0  0  0
    1.6780   12.5950   19.4930 C   0  0  0  0  0  0  0  0  0  0  0  0
    0.0320   13.0910   19.3930 S   0  0  0  0  0  6  0  0  0  0  0  0
   -0.7360   12.2820   18.0740 N   0  0  0  0  0  0  0  0  0  0  0  0
   -0.7060   12.6980   20.6580 O   0  0  0  0  0  0  0  0  0  0  0  0
   -0.0940   14.5630   19.2080 O   0  0  0  0  0  0  0  0  0  0  0  0
    2.0450   11.2990   18.8270 C   0  0  0  0  0  0  0  0  0  0  0  0
  1  2  1  0
  2  3  2  0
  3  4  1  0
  4  5  1  0
  5  6  1  0
  6  7  1  0
  7  8  1  0
  7  9  1  0
  7 10  1  0
 10 11  1  0
 10 12  1  0
 10 13  1  0
  4 14  2  0
 14 15  1  0
 15 16  1  0
 16 17  1  0
 16 18  2  0
 16 19  2  0
 15 20  2  0
 20  2  1  0
 13  5  1  0
A    1
 C1 
A    2
 C2 
A    3
 C3 
A    4
 C4 
A    5
 B1 
A    6
 O1 
A    7
 C5 
A    8
 C6 
A    9
 C7 
A   10
 C8 
A   11
 C9 
A   12
 C10
A   13
 O2 
A   14
 C11
A   15
 C12
A   16
 S1 
A   17
 N1 
A   18
 O3 
A   19
 O4 
A   20
 C13
M  END
>  <ref_url>  (93) 
nan

>  <submitter_name>  (93) 
nan

>  <submitter_email>  (93) 
nan

>  <submitter_institution>  (93) 
nan

>  <generation_date>  (93) 
nan

>  <method>  (93) 
nan

>  <rationale>  (93) 
info info set:sulfonimide_joint;hbond:G127+N129; hydroph_interaction:L100+L131; 

>  <experiment>  (93) 
sulfonimide_joint

>  <cluster_label>  (93) 
17

>  <cluster_rank>  (93) 
6

>  <N_interactions>  (93) 
6

>  <∆∆G>  (93) 
-4.741869

>  <comRMSD>  (93) 
0.735751

>  <ROCS_TanimotoCombo>  (93) 
0.333

>  <ROCS_ShapeTanimoto>  (93) 
0.217

>  <ROCS_ColorTanimoto>  (93) 
0.116

>  <ref_pdb>  (93) 
A71x0310a

>  <ref_mols>  (93) 
A71x0446a,A71x1080a,A71x0812a,A71x0719a,A71x1140a,A71x0528a,A71x0310a

>  <original SMILES>  (93) 
Cc1cc(B2OC(C)(C)C(C)(C)O2)cc(S(N)(=O)=O)c1

>  <origin>  (93) 
A71-ROCS-iter2.sdf

>  <butcher #BAD>  (93) 
6

>  <butcher #GOOD>  (93) 
14

>  <butcher #protein clash>  (93) 
4

>  <butcher #solvent space>  (93) 
2

>  <butcher #pocket>  (93) 
14

>  <butcher #P1>  (93) 
3

>  <butcher #P2>  (93) 
0

>  <butcher #P1'>  (93) 
0

>  <butcher #P2'>  (93) 
0

>  <butcher #P3>  (93) 
5

>  <butcher #P4>  (93) 
0

>  <butcher #P5>  (93) 
6

>  <butcher #P6>  (93) 
0

$$$$
EN300_7456597
     RDKit          3D

 13 13  0  0  0  0  0  0  0  0999 V2000
    6.1850   15.7670   22.1190 N   0  0  0  0  0  0  0  0  0  0  0  0
    7.3110   14.5510   22.2070 S   0  0  0  0  0  6  0  0  0  0  0  0
    6.6200   13.4370   21.6710 O   0  0  0  0  0  0  0  0  0  0  0  0
    8.5540   14.9660   21.5860 O   0  0  0  0  0  0  0  0  0  0  0  0
    7.3500   14.6100   23.9990 C   0  0  0  0  0  0  0  0  0  0  0  0
    8.4860   13.9120   24.6130 C   0  0  0  0  0  0  0  0  0  0  0  0
    8.7460   12.5810   24.3200 C   0  0  0  0  0  0  0  0  0  0  0  0
    7.8170   11.7900   24.9050 C   0  0  0  0  0  0  0  0  0  0  0  0
    7.9480   10.3360   24.6790 C   0  0  0  0  0  0  0  0  0  0  0  0
    8.9620    9.7480   23.8870 N   0  0  0  0  0  0  0  0  0  0  0  0
    9.8320   10.6480   23.3620 C   0  0  0  0  0  0  0  0  0  0  0  0
    9.7720   12.0450   23.5530 C   0  0  0  0  0  0  0  0  0  0  0  0
   11.0790   13.1710   22.7770 Br  0  0  0  0  0  0  0  0  0  0  0  0
  1  2  1  0
  2  3  2  0
  2  4  2  0
  2  5  1  0
  5  6  1  0
  6  7  1  0
  7  8  2  0
  8  9  1  0
  9 10  2  0
 10 11  1  0
 11 12  2  0
 12 13  1  0
 12  7  1  0
A    1
 N1 
A    2
 S1 
A    3
 O1 
A    4
 O2 
A    5
 C1 
A    6
 C2 
A    7
 C3 
A    8
 C4 
A    9
 C5 
A   10
 N2 
A   11
 C6 
A   12
 C7 
A   13
BR1 
M  END
>  <ref_url>  (94) 
nan

>  <submitter_name>  (94) 
nan

>  <submitter_email>  (94) 
nan

>  <submitter_institution>  (94) 
nan

>  <generation_date>  (94) 
nan

>  <method>  (94) 
nan

>  <rationale>  (94) 
info info set:sulfonimide_whole;hbond:S87+G127+A86; hydroph_interaction:P107; 

>  <experiment>  (94) 
sulfonimide_whole

>  <cluster_label>  (94) 
5

>  <cluster_rank>  (94) 
6

>  <N_interactions>  (94) 
4

>  <∆∆G>  (94) 
-5.463312

>  <comRMSD>  (94) 
0.553948

>  <ROCS_TanimotoCombo>  (94) 
0.355

>  <ROCS_ShapeTanimoto>  (94) 
0.188

>  <ROCS_ColorTanimoto>  (94) 
0.167

>  <ref_pdb>  (94) 
A71x0310a

>  <ref_mols>  (94) 
A71x0446a,A71x1080a,A71x0812a,A71x0719a,A71x1140a,A71x0528a,A71x0310a

>  <original SMILES>  (94) 
NS(=O)(=O)CCc1ccncc1Br

>  <origin>  (94) 
A71-ROCS-iter2.sdf

>  <butcher #BAD>  (94) 
0

>  <butcher #GOOD>  (94) 
13

>  <butcher #protein clash>  (94) 
0

>  <butcher #solvent space>  (94) 
0

>  <butcher #pocket>  (94) 
13

>  <butcher #P1>  (94) 
10

>  <butcher #P2>  (94) 
1

>  <butcher #P1'>  (94) 
0

>  <butcher #P2'>  (94) 
0

>  <butcher #P3>  (94) 
2

>  <butcher #P4>  (94) 
0

>  <butcher #P5>  (94) 
0

>  <butcher #P6>  (94) 
0

$$$$
Z1556902364
     RDKit          3D

 20 22  0  0  0  0  0  0  0  0999 V2000
   11.4680   15.0490   18.5010 C   0  0  0  0  0  0  0  0  0  0  0  0
   12.1240   14.8090   19.8170 C   0  0  0  0  0  0  0  0  0  0  0  0
   13.0880   13.8750   19.9130 C   0  0  0  0  0  0  0  0  0  0  0  0
   11.0580   14.6530   20.8330 C   0  0  0  0  0  0  0  0  0  0  0  0
   11.1930   14.2940   22.2360 C   0  0  0  0  0  0  0  0  0  0  0  0
    9.9220   14.2920   22.7450 C   0  0  0  0  0  0  0  0  0  0  0  0
    9.6220   13.9900   24.1440 C   0  0  0  0  0  0  0  0  0  0  0  0
    9.4630   14.8760   24.9670 O   0  0  0  0  0  0  0  0  0  0  0  0
    9.5080   12.7000   24.4120 N   0  0  0  0  0  0  0  0  0  0  0  0
    9.6750   11.7860   23.2930 C   0  0  0  0  0  0  0  0  0  0  0  0
    9.1610   10.4740   23.8380 C   0  0  0  0  0  0  0  0  0  0  0  0
    8.0010   10.7370   24.8870 C   0  0  0  0  0  0  0  0  0  0  0  0
    8.3360   12.2440   25.1790 C   0  0  0  0  0  0  0  0  0  0  0  0
    7.6550   12.8630   26.4330 C   0  0  0  0  0  0  0  0  0  0  0  0
    6.3230   12.1590   26.6640 C   0  0  0  0  0  0  0  0  0  0  0  0
    5.4300   12.5570   25.6540 O   0  0  0  0  0  0  0  0  0  0  0  0
    6.1790   13.3810   24.7680 C   0  0  0  0  0  0  0  0  0  0  0  0
    7.3190   12.5570   24.1330 C   0  0  0  0  0  0  0  0  0  0  0  0
    9.0390   14.6140   21.7550 N   0  0  0  0  0  0  0  0  0  0  0  0
    9.7440   14.8460   20.5740 O   0  0  0  0  0  0  0  0  0  0  0  0
  1  2  1  0
  2  3  1  0
  2  4  1  0
  4  5  2  0
  5  6  1  0
  6  7  1  0
  7  8  2  0
  7  9  1  0
  9 10  1  0
 10 11  1  0
 11 12  1  0
 12 13  1  0
 13 14  1  0
 14 15  1  0
 15 16  1  0
 16 17  1  0
 17 18  1  0
  6 19  2  0
 19 20  1  0
 20  4  1  0
 13  9  1  0
 18 13  1  0
A    1
 C1 
A    2
 C2 
A    3
 C3 
A    4
 C4 
A    5
 C5 
A    6
 C6 
A    7
 C7 
A    8
 O1 
A    9
 N1 
A   10
 C8 
A   11
 C9 
A   12
 C10
A   13
 C11
A   14
 C12
A   15
 C13
A   16
 O2 
A   17
 C14
A   18
 C15
A   19
 N2 
A   20
 O3 
M  END
>  <ref_url>  (95) 
nan

>  <submitter_name>  (95) 
nan

>  <submitter_email>  (95) 
nan

>  <submitter_institution>  (95) 
nan

>  <generation_date>  (95) 
nan

>  <method>  (95) 
nan

>  <rationale>  (95) 
info info set:3d;hbond:S87+E88; hydroph_interaction:P107+Y90+D39; 

>  <experiment>  (95) 
3d

>  <cluster_label>  (95) 
8

>  <cluster_rank>  (95) 
6

>  <N_interactions>  (95) 
6

>  <∆∆G>  (95) 
-0.87522

>  <comRMSD>  (95) 
0.843795

>  <ROCS_TanimotoCombo>  (95) 
0.354

>  <ROCS_ShapeTanimoto>  (95) 
0.213

>  <ROCS_ColorTanimoto>  (95) 
0.142

>  <ref_pdb>  (95) 
A71x0310a

>  <ref_mols>  (95) 
A71x0446a,A71x1080a,A71x0812a,A71x0719a,A71x1140a,A71x0528a,A71x0310a

>  <original SMILES>  (95) 
CC(C)c1cc(C(=O)N2CCCC23CCOCC3)no1

>  <origin>  (95) 
A71-ROCS-iter2.sdf

>  <butcher #BAD>  (95) 
2

>  <butcher #GOOD>  (95) 
18

>  <butcher #protein clash>  (95) 
2

>  <butcher #solvent space>  (95) 
0

>  <butcher #pocket>  (95) 
18

>  <butcher #P1>  (95) 
14

>  <butcher #P2>  (95) 
4

>  <butcher #P1'>  (95) 
0

>  <butcher #P2'>  (95) 
0

>  <butcher #P3>  (95) 
0

>  <butcher #P4>  (95) 
0

>  <butcher #P5>  (95) 
0

>  <butcher #P6>  (95) 
0

$$$$
Z86280727
     RDKit          3D

 25 27  0  0  0  0  0  0  0  0999 V2000
   13.9300   15.6870   21.1780 C   0  0  0  0  0  0  0  0  0  0  0  0
   12.7350   15.1770   21.8200 C   0  0  0  0  0  0  0  0  0  0  0  0
   13.0040   14.6170   23.2140 C   0  0  0  0  0  0  0  0  0  0  0  0
   11.6930   14.1490   23.8410 C   0  0  0  0  0  0  0  0  0  0  0  0
   10.4690   14.3650   22.9180 C   0  0  0  0  0  0  0  0  0  0  0  0
    9.2790   14.0170   23.4280 O   0  0  0  0  0  0  0  0  0  0  0  0
    9.0810   12.7070   23.6950 C   0  0  0  0  0  0  0  0  0  0  0  0
    9.9460   11.7940   23.1640 N   0  0  0  0  0  0  0  0  0  0  0  0
    9.6310   10.5340   23.4920 C   0  0  0  0  0  0  0  0  0  0  0  0
   10.4210    9.5290   22.9900 C   0  0  0  0  0  0  0  0  0  0  0  0
   10.6490    9.5900   21.6830 F   0  0  0  0  0  0  0  0  0  0  0  0
    9.9070    8.3440   23.1340 F   0  0  0  0  0  0  0  0  0  0  0  0
   11.6230    9.3830   23.5400 F   0  0  0  0  0  0  0  0  0  0  0  0
    8.5780   10.1970   24.2810 N   0  0  0  0  0  0  0  0  0  0  0  0
    7.7880   11.1540   24.7630 C   0  0  0  0  0  0  0  0  0  0  0  0
    6.6000   10.8500   25.6450 C   0  0  0  0  0  0  0  0  0  0  0  0
    5.7610   11.8180   26.1410 C   0  0  0  0  0  0  0  0  0  0  0  0
    6.0330   13.1390   25.8050 C   0  0  0  0  0  0  0  0  0  0  0  0
    7.1390   13.4640   24.9890 C   0  0  0  0  0  0  0  0  0  0  0  0
    7.9930   12.4710   24.4870 C   0  0  0  0  0  0  0  0  0  0  0  0
   10.5610   14.9070   21.6450 C   0  0  0  0  0  0  0  0  0  0  0  0
    9.3740   15.0990   20.8170 N   0  0  0  0  0  4  0  0  0  0  0  0
    8.2990   14.7890   21.3360 O   0  0  0  0  0  0  0  0  0  0  0  0
    9.4840   16.0400   20.0180 O   0  0  0  0  0  1  0  0  0  0  0  0
   11.6720   15.2990   21.1160 N   0  0  0  0  0  0  0  0  0  0  0  0
  1  2  1  0
  2  3  2  0
  3  4  1  0
  4  5  2  0
  5  6  1  0
  6  7  1  0
  7  8  2  0
  8  9  1  0
  9 10  1  0
 10 11  1  0
 10 12  1  0
 10 13  1  0
  9 14  2  0
 14 15  1  0
 15 16  2  0
 16 17  1  0
 17 18  2  0
 18 19  1  0
 19 20  2  0
  5 21  1  0
 21 22  1  0
 22 23  2  0
 22 24  1  0
 21 25  2  0
 25  2  1  0
 20  7  1  0
 20 15  1  0
M  CHG  2  22   1  24  -1
A    1
 C1 
A    2
 C2 
A    3
 C3 
A    4
 C4 
A    5
 C5 
A    6
 O1 
A    7
 C6 
A    8
 N1 
A    9
 C7 
A   10
 C8 
A   11
 F1 
A   12
 F2 
A   13
 F3 
A   14
 N2 
A   15
 C9 
A   16
 C10
A   17
 C11
A   18
 C12
A   19
 C13
A   20
 C14
A   21
 C15
A   22
 N3 
A   23
 O2 
A   24
 O3 
A   25
 N4 
M  END
>  <ref_url>  (96) 
nan

>  <submitter_name>  (96) 
nan

>  <submitter_email>  (96) 
nan

>  <submitter_institution>  (96) 
nan

>  <generation_date>  (96) 
nan

>  <method>  (96) 
nan

>  <rationale>  (96) 
info info set:screening_whole;halogenbond:P107; hbond:S87; hydroph_interaction:P107+Y89+Y90+H21; pistack:H21; 

>  <experiment>  (96) 
screening_whole

>  <cluster_label>  (96) 
9

>  <cluster_rank>  (96) 
6

>  <N_interactions>  (96) 
7

>  <∆∆G>  (96) 
-1.397278

>  <comRMSD>  (96) 
0.634819

>  <ROCS_TanimotoCombo>  (96) 
0.48

>  <ROCS_ShapeTanimoto>  (96) 
0.28

>  <ROCS_ColorTanimoto>  (96) 
0.2

>  <ref_pdb>  (96) 
A71x0310a

>  <ref_mols>  (96) 
A71x0446a,A71x1080a,A71x0812a,A71x0719a,A71x1140a,A71x0528a,A71x0310a

>  <original SMILES>  (96) 
Cc1ccc(Oc2nc(C(F)(F)F)nc3ccccc23)c([N+](=O)[O-])n1

>  <origin>  (96) 
A71-ROCS-iter2.sdf

>  <butcher #BAD>  (96) 
4

>  <butcher #GOOD>  (96) 
21

>  <butcher #protein clash>  (96) 
4

>  <butcher #solvent space>  (96) 
0

>  <butcher #pocket>  (96) 
21

>  <butcher #P1>  (96) 
13

>  <butcher #P2>  (96) 
5

>  <butcher #P1'>  (96) 
3

>  <butcher #P2'>  (96) 
0

>  <butcher #P3>  (96) 
0

>  <butcher #P4>  (96) 
0

>  <butcher #P5>  (96) 
0

>  <butcher #P6>  (96) 
0

$$$$
Z98405516
     RDKit          3D

 24 27  0  0  0  0  0  0  0  0999 V2000
    6.9820   15.2440   21.2210 C   0  0  0  0  0  0  0  0  0  0  0  0
    8.3180   14.6150   20.8790 C   0  0  0  0  0  0  0  0  0  0  0  0
    9.4370   15.4920   20.8850 O   0  0  0  0  0  0  0  0  0  0  0  0
   10.5450   15.0850   21.5760 C   0  0  0  0  0  0  0  0  0  0  0  0
   11.8680   15.1380   20.8880 C   0  0  0  0  0  0  0  0  0  0  0  0
   13.1310   14.7610   21.5950 C   0  0  0  0  0  0  0  0  0  0  0  0
   13.1030   14.2850   23.0490 C   0  0  0  0  0  0  0  0  0  0  0  0
   11.7700   14.1960   23.7950 C   0  0  0  0  0  0  0  0  0  0  0  0
   10.4780   14.6050   23.0510 C   0  0  0  0  0  0  0  0  0  0  0  0
    9.3750   14.5820   23.6360 O   0  0  0  0  0  0  0  0  0  0  0  0
    9.0660   13.3380   23.7960 C   0  0  0  0  0  0  0  0  0  0  0  0
    9.8150   12.5900   23.2120 N   0  0  0  0  0  0  0  0  0  0  0  0
    9.5560   11.3800   23.4080 C   0  0  0  0  0  0  0  0  0  0  0  0
   10.2670   10.3210   22.8120 C   0  0  0  0  0  0  0  0  0  0  0  0
    9.5530    9.2920   23.4210 C   0  0  0  0  0  0  0  0  0  0  0  0
   10.2620    8.2170   22.8580 C   0  0  0  0  0  0  0  0  0  0  0  0
    8.5010    9.4800   24.2830 N   0  0  0  0  0  0  0  0  0  0  0  0
    8.5390   10.8390   24.2270 N   0  0  0  0  0  0  0  0  0  0  0  0
    7.6810   11.6430   24.8680 C   0  0  0  0  0  0  0  0  0  0  0  0
    6.5510   11.0900   25.7290 C   0  0  0  0  0  0  0  0  0  0  0  0
    5.7640   12.0950   26.2630 C   0  0  0  0  0  0  0  0  0  0  0  0
    6.0130   13.5710   26.0140 C   0  0  0  0  0  0  0  0  0  0  0  0
    7.0760   13.9880   25.2210 C   0  0  0  0  0  0  0  0  0  0  0  0
    7.9060   13.0180   24.6540 C   0  0  0  0  0  0  0  0  0  0  0  0
  1  2  1  0
  2  3  1  0
  3  4  1  0
  4  5  2  0
  5  6  1  0
  6  7  2  0
  7  8  1  0
  8  9  2  0
  9 10  1  0
 10 11  1  0
 11 12  2  0
 12 13  1  0
 13 14  2  0
 14 15  1  0
 15 16  1  0
 15 17  2  0
 17 18  1  0
 18 19  1  0
 19 20  2  0
 20 21  1  0
 21 22  2  0
 22 23  1  0
 23 24  2  0
  9  4  1  0
 24 11  1  0
 18 13  1  0
 24 19  1  0
A    1
 C1 
A    2
 C2 
A    3
 O1 
A    4
 C3 
A    5
 C4 
A    6
 C5 
A    7
 C6 
A    8
 C7 
A    9
 C8 
A   10
 O2 
A   11
 C9 
A   12
 N1 
A   13
 C10
A   14
 C11
A   15
 C12
A   16
 C13
A   17
 N2 
A   18
 N3 
A   19
 C14
A   20
 C15
A   21
 C16
A   22
 C17
A   23
 C18
A   24
 C19
M  END
>  <ref_url>  (97) 
nan

>  <submitter_name>  (97) 
nan

>  <submitter_email>  (97) 
nan

>  <submitter_institution>  (97) 
nan

>  <generation_date>  (97) 
nan

>  <method>  (97) 
nan

>  <rationale>  (97) 
info info set:screening_whole;hbond:S87+G127; hydroph_interaction:Y90+V124+V84+D109; pistack:H21; 

>  <experiment>  (97) 
screening_whole

>  <cluster_label>  (97) 
3

>  <cluster_rank>  (97) 
6

>  <N_interactions>  (97) 
7

>  <∆∆G>  (97) 
-7.463033

>  <comRMSD>  (97) 
0.594977

>  <ROCS_TanimotoCombo>  (97) 
0.484

>  <ROCS_ShapeTanimoto>  (97) 
0.285

>  <ROCS_ColorTanimoto>  (97) 
0.199

>  <ref_pdb>  (97) 
A71x0310a

>  <ref_mols>  (97) 
A71x0446a,A71x1080a,A71x0812a,A71x0719a,A71x1140a,A71x0528a,A71x0310a

>  <original SMILES>  (97) 
CCOc1ccccc1Oc1nc2cc(C)nn2c2ccccc12

>  <origin>  (97) 
A71-ROCS-iter2.sdf

>  <butcher #BAD>  (97) 
3

>  <butcher #GOOD>  (97) 
21

>  <butcher #protein clash>  (97) 
2

>  <butcher #solvent space>  (97) 
1

>  <butcher #pocket>  (97) 
21

>  <butcher #P1>  (97) 
14

>  <butcher #P2>  (97) 
4

>  <butcher #P1'>  (97) 
3

>  <butcher #P2'>  (97) 
0

>  <butcher #P3>  (97) 
0

>  <butcher #P4>  (97) 
0

>  <butcher #P5>  (97) 
0

>  <butcher #P6>  (97) 
0

$$$$
EN300_23326
     RDKit          3D

 16 16  0  0  0  0  0  0  0  0999 V2000
   11.4510   14.8540   19.3170 C   0  0  0  0  0  0  0  0  0  0  0  0
   11.6630   14.4760   20.7640 C   0  0  1  0  0  0  0  0  0  0  0  0
   12.5220   15.7490   21.6670 Cl  0  0  0  0  0  0  0  0  0  0  0  0
   10.4620   14.0900   21.5670 C   0  0  0  0  0  0  0  0  0  0  0  0
    9.3640   14.6150   21.4310 O   0  0  0  0  0  0  0  0  0  0  0  0
   10.7670   13.1200   22.4230 N   0  0  0  0  0  0  0  0  0  0  0  0
    9.7710   12.3710   23.2040 C   0  0  0  0  0  0  0  0  0  0  0  0
    9.9930   10.8620   23.1030 C   0  0  0  0  0  0  0  0  0  0  0  0
    8.9940   10.0520   23.9220 C   0  0  0  0  0  0  0  0  0  0  0  0
    7.8560   10.6730   24.7720 C   0  0  0  0  0  0  0  0  0  0  0  0
    7.7790   12.1890   24.7390 C   0  0  0  0  0  0  0  0  0  0  0  0
    6.5230   13.0340   25.6390 S   0  0  0  0  0  6  0  0  0  0  0  0
    7.3130   13.3720   27.0830 N   0  0  0  0  0  0  0  0  0  0  0  0
    6.2940   14.3180   25.0170 O   0  0  0  0  0  0  0  0  0  0  0  0
    5.4580   12.1040   25.9220 O   0  0  0  0  0  0  0  0  0  0  0  0
    8.7830   12.9930   23.9270 C   0  0  0  0  0  0  0  0  0  0  0  0
  2  1  1  6
  2  3  1  0
  2  4  1  0
  4  5  2  0
  4  6  1  0
  6  7  1  0
  7  8  2  0
  8  9  1  0
  9 10  2  0
 10 11  1  0
 11 12  1  0
 12 13  1  0
 12 14  2  0
 12 15  2  0
 11 16  2  0
 16  7  1  0
A    1
 C1 
A    2
 C2 
A    3
CL1 
A    4
 C3 
A    5
 O1 
A    6
 N1 
A    7
 C4 
A    8
 C5 
A    9
 C6 
A   10
 C7 
A   11
 C8 
A   12
 S1 
A   13
 N2 
A   14
 O2 
A   15
 O3 
A   16
 C9 
M  END
>  <ref_url>  (98) 
nan

>  <submitter_name>  (98) 
nan

>  <submitter_email>  (98) 
nan

>  <submitter_institution>  (98) 
nan

>  <generation_date>  (98) 
nan

>  <method>  (98) 
nan

>  <rationale>  (98) 
info info set:sulfonimide_whole;halogenbond:E88; hbond:S87; hydroph_interaction:Y90; 

>  <experiment>  (98) 
sulfonimide_whole

>  <cluster_label>  (98) 
7

>  <cluster_rank>  (98) 
6

>  <N_interactions>  (98) 
3

>  <∆∆G>  (98) 
-7.725132

>  <comRMSD>  (98) 
0.382562

>  <ROCS_TanimotoCombo>  (98) 
0.347

>  <ROCS_ShapeTanimoto>  (98) 
0.207

>  <ROCS_ColorTanimoto>  (98) 
0.14

>  <ref_pdb>  (98) 
A71x0310a

>  <ref_mols>  (98) 
A71x0446a,A71x1080a,A71x0812a,A71x0719a,A71x1140a,A71x0528a,A71x0310a

>  <original SMILES>  (98) 
C[C@@H](Cl)C(=O)Nc1cccc(S(N)(=O)=O)c1

>  <origin>  (98) 
A71-ROCS-iter2.sdf

>  <butcher #BAD>  (98) 
1

>  <butcher #GOOD>  (98) 
15

>  <butcher #protein clash>  (98) 
0

>  <butcher #solvent space>  (98) 
1

>  <butcher #pocket>  (98) 
15

>  <butcher #P1>  (98) 
11

>  <butcher #P2>  (98) 
3

>  <butcher #P1'>  (98) 
0

>  <butcher #P2'>  (98) 
0

>  <butcher #P3>  (98) 
1

>  <butcher #P4>  (98) 
0

>  <butcher #P5>  (98) 
0

>  <butcher #P6>  (98) 
0

$$$$
Z960169668
     RDKit          3D

 15 15  0  0  0  0  0  0  0  0999 V2000
   12.0330   15.5130   21.9190 C   0  0  0  0  0  0  0  0  0  0  0  0
   11.5090   14.1140   21.6470 C   0  0  0  0  0  0  0  0  0  0  0  0
   10.9640   13.4510   22.8390 N   0  0  0  0  0  0  0  0  0  0  0  0
   11.6740   13.7830   24.0400 C   0  0  0  0  0  0  0  0  0  0  0  0
   13.1470   13.3820   23.9590 C   0  0  0  0  0  0  0  0  0  0  0  0
   10.4240   12.0900   22.7950 C   0  0  0  0  0  0  0  0  0  0  0  0
   10.7340   11.1450   22.1440 O   0  0  0  0  0  0  0  0  0  0  0  0
    9.2500   11.8470   23.7730 C   0  0  0  0  0  0  0  0  0  0  0  0
    8.3910   12.8880   24.4380 C   0  0  0  0  0  0  0  0  0  0  0  0
    7.3640   12.5380   25.2990 C   0  0  0  0  0  0  0  0  0  0  0  0
    7.1270   11.1330   25.5500 C   0  0  0  0  0  0  0  0  0  0  0  0
    7.8360   10.1380   25.0050 N   0  0  0  0  0  0  0  0  0  0  0  0
    8.8470   10.3970   24.1610 C   0  0  0  0  0  0  0  0  0  0  0  0
    9.4950    9.2610   23.6800 N   0  0  0  0  0  0  0  0  0  0  0  0
   10.1200    9.2460   22.3770 C   0  0  0  0  0  0  0  0  0  0  0  0
  1  2  1  0
  2  3  1  0
  3  4  1  0
  4  5  1  0
  3  6  1  0
  6  7  2  0
  6  8  1  0
  8  9  2  0
  9 10  1  0
 10 11  2  0
 11 12  1  0
 12 13  2  0
 13 14  1  0
 14 15  1  0
 13  8  1  0
A    1
 C1 
A    2
 C2 
A    3
 N1 
A    4
 C3 
A    5
 C4 
A    6
 C5 
A    7
 O1 
A    8
 C6 
A    9
 C7 
A   10
 C8 
A   11
 C9 
A   12
 N2 
A   13
 C10
A   14
 N3 
A   15
 C11
M  END
>  <ref_url>  (99) 
nan

>  <submitter_name>  (99) 
nan

>  <submitter_email>  (99) 
nan

>  <submitter_institution>  (99) 
nan

>  <generation_date>  (99) 
nan

>  <method>  (99) 
nan

>  <rationale>  (99) 
info info set:screening_pocket;hbond:E106; hydroph_interaction:P107; 

>  <experiment>  (99) 
screening_pocket

>  <cluster_label>  (99) 
6

>  <cluster_rank>  (99) 
7

>  <N_interactions>  (99) 
2

>  <∆∆G>  (99) 
-6.291928

>  <comRMSD>  (99) 
0.776431

>  <ROCS_TanimotoCombo>  (99) 
0.676

>  <ROCS_ShapeTanimoto>  (99) 
0.244

>  <ROCS_ColorTanimoto>  (99) 
0.432

>  <ref_pdb>  (99) 
A71x0310a

>  <ref_mols>  (99) 
A71x0446a,A71x1080a,A71x0812a,A71x0719a,A71x1140a,A71x0528a,A71x0310a

>  <original SMILES>  (99) 
CCN(CC)C(=O)c1cccnc1NC

>  <origin>  (99) 
A71-ROCS-iter2.sdf

>  <butcher #BAD>  (99) 
1

>  <butcher #GOOD>  (99) 
14

>  <butcher #protein clash>  (99) 
1

>  <butcher #solvent space>  (99) 
0

>  <butcher #pocket>  (99) 
14

>  <butcher #P1>  (99) 
12

>  <butcher #P2>  (99) 
1

>  <butcher #P1'>  (99) 
1

>  <butcher #P2'>  (99) 
0

>  <butcher #P3>  (99) 
0

>  <butcher #P4>  (99) 
0

>  <butcher #P5>  (99) 
0

>  <butcher #P6>  (99) 
0

$$$$
EN300_306974
     RDKit          3D

 14 14  0  0  0  0  0  0  0  0999 V2000
    9.9580    8.7530   22.4600 C   0  0  0  0  0  0  0  0  0  0  0  0
   10.1760    9.8250   23.2290 N   0  0  0  0  0  0  0  0  0  0  0  0
    9.2510   10.6250   23.8670 C   0  0  0  0  0  0  0  0  0  0  0  0
    8.2990   10.1110   24.6750 N   0  0  0  0  0  0  0  0  0  0  0  0
    7.4590   10.9860   25.2600 C   0  0  0  0  0  0  0  0  0  0  0  0
    7.4800   12.3680   25.1030 C   0  0  0  0  0  0  0  0  0  0  0  0
    6.5730   13.2030   25.7460 C   0  0  0  0  0  0  0  0  0  0  0  0
    7.1310   13.8390   26.8160 F   0  0  0  0  0  0  0  0  0  0  0  0
    5.4800   12.5530   26.2310 F   0  0  0  0  0  0  0  0  0  0  0  0
    8.4650   12.8720   24.2600 C   0  0  0  0  0  0  0  0  0  0  0  0
    9.3470   11.9870   23.6480 C   0  0  0  0  0  0  0  0  0  0  0  0
   10.3580   12.5520   22.7870 N   0  0  0  0  0  4  0  0  0  0  0  0
    9.9340   13.3020   21.9030 O   0  0  0  0  0  0  0  0  0  0  0  0
   11.4830   12.6810   23.2740 O   0  0  0  0  0  1  0  0  0  0  0  0
  1  2  1  0
  2  3  1  0
  3  4  2  0
  4  5  1  0
  5  6  2  0
  6  7  1  0
  7  8  1  0
  7  9  1  0
  6 10  1  0
 10 11  2  0
 11 12  1  0
 12 13  2  0
 12 14  1  0
 11  3  1  0
M  CHG  2  12   1  14  -1
A    1
 C1 
A    2
 N1 
A    3
 C2 
A    4
 N2 
A    5
 C3 
A    6
 C4 
A    7
 C5 
A    8
 F1 
A    9
 F2 
A   10
 C6 
A   11
 C7 
A   12
 N3 
A   13
 O1 
A   14
 O2 
M  END
>  <ref_url>  (100) 
nan

>  <submitter_name>  (100) 
nan

>  <submitter_email>  (100) 
nan

>  <submitter_institution>  (100) 
nan

>  <generation_date>  (100) 
nan

>  <method>  (100) 
nan

>  <rationale>  (100) 
info info set:bb_densepocket2;hbond:P107; 

>  <experiment>  (100) 
bb_densepocket2

>  <cluster_label>  (100) 
11

>  <cluster_rank>  (100) 
7

>  <N_interactions>  (100) 
1

>  <∆∆G>  (100) 
-3.199528

>  <comRMSD>  (100) 
0.6471

>  <ROCS_TanimotoCombo>  (100) 
0.611

>  <ROCS_ShapeTanimoto>  (100) 
0.25

>  <ROCS_ColorTanimoto>  (100) 
0.362

>  <ref_pdb>  (100) 
A71x0310a

>  <ref_mols>  (100) 
A71x0446a,A71x1080a,A71x0812a,A71x0719a,A71x1140a,A71x0528a,A71x0310a

>  <original SMILES>  (100) 
CNc1ncc(C(F)F)cc1[N+](=O)[O-]

>  <origin>  (100) 
A71-ROCS-iter2.sdf

>  <butcher #BAD>  (100) 
2

>  <butcher #GOOD>  (100) 
12

>  <butcher #protein clash>  (100) 
1

>  <butcher #solvent space>  (100) 
1

>  <butcher #pocket>  (100) 
12

>  <butcher #P1>  (100) 
12

>  <butcher #P2>  (100) 
0

>  <butcher #P1'>  (100) 
0

>  <butcher #P2'>  (100) 
0

>  <butcher #P3>  (100) 
0

>  <butcher #P4>  (100) 
0

>  <butcher #P5>  (100) 
0

>  <butcher #P6>  (100) 
0

$$$$
EN300_249159
     RDKit          3D

 16 16  0  0  0  0  0  0  0  0999 V2000
    6.0070   14.8060   21.0400 C   0  0  0  0  0  0  0  0  0  0  0  0
    5.9170   14.4960   22.3720 N   0  0  0  0  0  0  0  0  0  0  0  0
    7.2050   14.3390   23.0230 C   0  0  0  0  0  0  0  0  0  0  0  0
    7.1800   14.7380   24.3010 C   0  0  0  0  0  0  0  0  0  0  0  0
    8.1480   14.0070   25.0330 O   0  0  0  0  0  0  0  0  0  0  0  0
    8.5040   12.7790   24.5680 C   0  0  0  0  0  0  0  0  0  0  0  0
    7.8590   11.5140   24.9890 C   0  0  0  0  0  0  0  0  0  0  0  0
    8.3740   10.2550   24.3930 C   0  0  0  0  0  0  0  0  0  0  0  0
    9.4090   10.3080   23.4800 C   0  0  0  0  0  0  0  0  0  0  0  0
   10.0350    8.8480   22.7390 S   0  0  0  0  0  6  0  0  0  0  0  0
   10.8460    9.5890   21.6050 N   0  0  0  0  0  0  0  0  0  0  0  0
    9.0750    8.1490   22.0050 O   0  0  0  0  0  0  0  0  0  0  0  0
   11.1190    8.2090   23.3510 O   0  0  0  0  0  0  0  0  0  0  0  0
    9.9940   11.5280   23.1000 C   0  0  0  0  0  0  0  0  0  0  0  0
    9.5410   12.7190   23.6430 C   0  0  0  0  0  0  0  0  0  0  0  0
   10.1370   13.8520   23.2510 F   0  0  0  0  0  0  0  0  0  0  0  0
  1  2  1  0
  2  3  1  0
  3  4  1  0
  4  5  1  0
  5  6  1  0
  6  7  2  0
  7  8  1  0
  8  9  2  0
  9 10  1  0
 10 11  1  0
 10 12  2  0
 10 13  2  0
  9 14  1  0
 14 15  2  0
 15 16  1  0
 15  6  1  0
A    1
 C1 
A    2
 N1 
A    3
 C2 
A    4
 C3 
A    5
 O1 
A    6
 C4 
A    7
 C5 
A    8
 C6 
A    9
 C7 
A   10
 S1 
A   11
 N2 
A   12
 O2 
A   13
 O3 
A   14
 C8 
A   15
 C9 
A   16
 F1 
M  END
>  <ref_url>  (101) 
nan

>  <submitter_name>  (101) 
nan

>  <submitter_email>  (101) 
nan

>  <submitter_institution>  (101) 
nan

>  <generation_date>  (101) 
nan

>  <method>  (101) 
nan

>  <rationale>  (101) 
info info set:sulfonimide_joint;hbond:S105+G127+D109; 

>  <experiment>  (101) 
sulfonimide_joint

>  <cluster_label>  (101) 
15

>  <cluster_rank>  (101) 
7

>  <N_interactions>  (101) 
4

>  <∆∆G>  (101) 
-3.436755

>  <comRMSD>  (101) 
0.653774

>  <ROCS_TanimotoCombo>  (101) 
0.306

>  <ROCS_ShapeTanimoto>  (101) 
0.194

>  <ROCS_ColorTanimoto>  (101) 
0.112

>  <ref_pdb>  (101) 
A71x0310a

>  <ref_mols>  (101) 
A71x0446a,A71x1080a,A71x0812a,A71x0719a,A71x1140a,A71x0528a,A71x0310a

>  <original SMILES>  (101) 
CNCCOc1ccc(S(N)(=O)=O)cc1F

>  <origin>  (101) 
A71-ROCS-iter2.sdf

>  <butcher #BAD>  (101) 
4

>  <butcher #GOOD>  (101) 
12

>  <butcher #protein clash>  (101) 
4

>  <butcher #solvent space>  (101) 
0

>  <butcher #pocket>  (101) 
12

>  <butcher #P1>  (101) 
11

>  <butcher #P2>  (101) 
0

>  <butcher #P1'>  (101) 
0

>  <butcher #P2'>  (101) 
0

>  <butcher #P3>  (101) 
1

>  <butcher #P4>  (101) 
0

>  <butcher #P5>  (101) 
0

>  <butcher #P6>  (101) 
0

$$$$
EN300_4478273
     RDKit          3D

 15 15  0  0  0  0  0  0  0  0999 V2000
   13.0310   14.3790   23.4850 C   0  0  0  0  0  0  0  0  0  0  0  0
   11.8610   13.8640   22.6510 C   0  0  0  0  0  0  0  0  0  0  0  0
   10.7820   13.4260   23.5130 O   0  0  0  0  0  0  0  0  0  0  0  0
   10.1990   12.2900   23.1040 C   0  0  0  0  0  0  0  0  0  0  0  0
   10.5070   11.6310   22.1730 O   0  0  0  0  0  0  0  0  0  0  0  0
    9.0480   11.8620   23.9910 C   0  0  0  0  0  0  0  0  0  0  0  0
    8.3630   12.8550   24.6610 C   0  0  0  0  0  0  0  0  0  0  0  0
    7.3250   12.5170   25.4720 N   0  0  0  0  0  0  0  0  0  0  0  0
    6.9750   11.1130   25.6030 C   0  0  0  0  0  0  0  0  0  0  0  0
    5.9620   10.5860   26.3660 N   0  0  0  0  0  0  0  0  0  0  0  0
    5.7610   11.2060   27.6340 C   0  0  0  0  0  0  0  0  0  0  0  0
    7.6380   10.2060   24.9600 N   0  0  0  0  0  0  0  0  0  0  0  0
    8.6480   10.5670   24.1710 C   0  0  0  0  0  0  0  0  0  0  0  0
    9.2060    9.3430   23.5740 C   0  0  0  0  0  0  0  0  0  0  0  0
   10.7770    9.4280   22.8760 Cl  0  0  0  0  0  0  0  0  0  0  0  0
  1  2  1  0
  2  3  1  0
  3  4  1  0
  4  5  2  0
  4  6  1  0
  6  7  2  0
  7  8  1  0
  8  9  2  0
  9 10  1  0
 10 11  1  0
  9 12  1  0
 12 13  2  0
 13 14  1  0
 14 15  1  0
 13  6  1  0
A    1
 C1 
A    2
 C2 
A    3
 O1 
A    4
 C3 
A    5
 O2 
A    6
 C4 
A    7
 C5 
A    8
 N1 
A    9
 C6 
A   10
 N2 
A   11
 C7 
A   12
 N3 
A   13
 C8 
A   14
 C9 
A   15
CL1 
M  END
>  <ref_url>  (102) 
nan

>  <submitter_name>  (102) 
nan

>  <submitter_email>  (102) 
nan

>  <submitter_institution>  (102) 
nan

>  <generation_date>  (102) 
nan

>  <method>  (102) 
nan

>  <rationale>  (102) 
info info set:bb_densepocket2;halogenbond:C110; hbond:S105; hydroph_interaction:Y89; 

>  <experiment>  (102) 
bb_densepocket2

>  <cluster_label>  (102) 
2

>  <cluster_rank>  (102) 
7

>  <N_interactions>  (102) 
3

>  <∆∆G>  (102) 
-1.950367

>  <comRMSD>  (102) 
0.762787

>  <ROCS_TanimotoCombo>  (102) 
0.621

>  <ROCS_ShapeTanimoto>  (102) 
0.261

>  <ROCS_ColorTanimoto>  (102) 
0.36

>  <ref_pdb>  (102) 
A71x0310a

>  <ref_mols>  (102) 
A71x0446a,A71x1080a,A71x0812a,A71x0719a,A71x1140a,A71x0528a,A71x0310a

>  <original SMILES>  (102) 
CCOC(=O)c1cnc(NC)nc1CCl

>  <origin>  (102) 
A71-ROCS-iter2.sdf

>  <butcher #BAD>  (102) 
3

>  <butcher #GOOD>  (102) 
12

>  <butcher #protein clash>  (102) 
2

>  <butcher #solvent space>  (102) 
1

>  <butcher #pocket>  (102) 
12

>  <butcher #P1>  (102) 
11

>  <butcher #P2>  (102) 
0

>  <butcher #P1'>  (102) 
1

>  <butcher #P2'>  (102) 
0

>  <butcher #P3>  (102) 
0

>  <butcher #P4>  (102) 
0

>  <butcher #P5>  (102) 
0

>  <butcher #P6>  (102) 
0

$$$$
EN300_37458937
     RDKit          3D

 15 15  0  0  0  0  0  0  0  0999 V2000
    6.0670   11.9860   27.0670 C   0  0  0  0  0  0  0  0  0  0  0  0
    7.0780   11.8880   25.9280 C   0  0  0  0  0  0  0  0  0  0  0  0
    7.3500   10.6020   25.5480 C   0  0  0  0  0  0  0  0  0  0  0  0
    8.1960   10.2380   24.5870 N   0  0  0  0  0  0  0  0  0  0  0  0
    8.8140   11.2670   23.9610 C   0  0  0  0  0  0  0  0  0  0  0  0
    9.6690   10.9070   22.9790 C   0  0  0  0  0  0  0  0  0  0  0  0
   10.5010   11.6280   22.4770 O   0  0  0  0  0  0  0  0  0  0  0  0
    9.3490    9.6430   22.7220 O   0  0  0  0  0  0  0  0  0  0  0  0
   10.2680    8.6780   22.2730 C   0  0  0  0  0  0  0  0  0  0  0  0
   11.1080    9.1110   21.3320 C   0  0  0  0  0  0  0  0  0  0  0  0
   11.1660    8.1620   23.1440 C   0  0  0  0  0  0  0  0  0  0  0  0
    9.7690    7.6280   21.4850 C   0  0  0  0  0  0  0  0  0  0  0  0
    8.6250   12.6010   24.2450 C   0  0  0  0  0  0  0  0  0  0  0  0
    7.7310   12.9150   25.2570 C   0  0  0  0  0  0  0  0  0  0  0  0
    7.4670   14.5750   25.6380 Cl  0  0  0  0  0  0  0  0  0  0  0  0
  1  2  1  0
  2  3  2  0
  3  4  1  0
  4  5  2  0
  5  6  1  0
  6  7  2  0
  6  8  1  0
  8  9  1  0
  9 10  1  0
  9 11  1  0
  9 12  1  0
  5 13  1  0
 13 14  2  0
 14 15  1  0
 14  2  1  0
A    1
 C1 
A    2
 C2 
A    3
 C3 
A    4
 N1 
A    5
 C4 
A    6
 C5 
A    7
 O1 
A    8
 O2 
A    9
 C6 
A   10
 C7 
A   11
 C8 
A   12
 C9 
A   13
 C10
A   14
 C11
A   15
CL1 
M  END
>  <ref_url>  (103) 
nan

>  <submitter_name>  (103) 
nan

>  <submitter_email>  (103) 
nan

>  <submitter_institution>  (103) 
nan

>  <generation_date>  (103) 
nan

>  <method>  (103) 
nan

>  <rationale>  (103) 
info info set:bb_densepocket2;hydroph_interaction:V124+D109+V132; 

>  <experiment>  (103) 
bb_densepocket2

>  <cluster_label>  (103) 
18

>  <cluster_rank>  (103) 
7

>  <N_interactions>  (103) 
4

>  <∆∆G>  (103) 
-1.13215

>  <comRMSD>  (103) 
0.729674

>  <ROCS_TanimotoCombo>  (103) 
0.612

>  <ROCS_ShapeTanimoto>  (103) 
0.219

>  <ROCS_ColorTanimoto>  (103) 
0.393

>  <ref_pdb>  (103) 
A71x0310a

>  <ref_mols>  (103) 
A71x0446a,A71x1080a,A71x0812a,A71x0719a,A71x1140a,A71x0528a,A71x0310a

>  <original SMILES>  (103) 
Cc1cnc(C(=O)OC(C)(C)C)cc1Cl

>  <origin>  (103) 
A71-ROCS-iter2.sdf

>  <butcher #BAD>  (103) 
5

>  <butcher #GOOD>  (103) 
10

>  <butcher #protein clash>  (103) 
4

>  <butcher #solvent space>  (103) 
1

>  <butcher #pocket>  (103) 
10

>  <butcher #P1>  (103) 
10

>  <butcher #P2>  (103) 
0

>  <butcher #P1'>  (103) 
0

>  <butcher #P2'>  (103) 
0

>  <butcher #P3>  (103) 
0

>  <butcher #P4>  (103) 
0

>  <butcher #P5>  (103) 
0

>  <butcher #P6>  (103) 
0

$$$$
EN300_22312861
     RDKit          3D

 23 25  0  0  0  0  0  0  0  0999 V2000
   10.0010   16.2960   20.0570 C   0  0  0  0  0  0  0  0  0  0  0  0
   10.8670   15.5270   21.0460 C   0  0  0  0  0  0  0  0  0  0  0  0
   12.1760   16.0420   21.7560 C   0  0  0  0  0  0  0  0  0  0  0  0
   12.9310   15.1060   22.7260 C   0  0  0  0  0  0  0  0  0  0  0  0
   14.1610   15.2310   23.5370 C   0  0  0  0  0  0  0  0  0  0  0  0
   12.2860   13.8160   22.8560 C   0  0  0  0  0  0  0  0  0  0  0  0
   11.0770   13.4240   22.1690 C   0  0  0  0  0  0  0  0  0  0  0  0
   10.5760   12.2250   22.3500 N   0  0  0  0  0  0  0  0  0  0  0  0
    9.6130   11.9000   23.1850 C   0  0  0  0  0  0  0  0  0  0  0  0
    8.8300   12.8670   23.7450 N   0  0  0  0  0  0  0  0  0  0  0  0
    7.9300   12.5520   24.5910 C   0  0  0  0  0  0  0  0  0  0  0  0
    7.0210   13.6280   25.2000 C   0  0  0  0  0  0  0  0  0  0  0  0
    7.4450   15.0340   24.8200 C   0  0  0  0  0  0  0  0  0  0  0  0
    5.9910   13.2810   25.9670 C   0  0  0  0  0  0  0  0  0  0  0  0
    5.7440   11.8980   26.2300 C   0  0  0  0  0  0  0  0  0  0  0  0
    6.5810   10.9650   25.7580 C   0  0  0  0  0  0  0  0  0  0  0  0
    7.7100   11.2680   24.9980 N   0  0  0  0  0  0  0  0  0  0  0  0
    8.3770   10.2460   24.3590 C   0  0  0  0  0  0  0  0  0  0  0  0
    8.0740    9.1570   24.5480 O   0  0  0  0  0  0  0  0  0  0  0  0
    9.4500   10.6380   23.4250 C   0  0  0  0  0  0  0  0  0  0  0  0
   10.2570    9.5560   22.8130 C   0  0  0  0  0  0  0  0  0  0  0  0
   11.3800    9.2530   23.1490 O   0  0  0  0  0  0  0  0  0  0  0  0
   10.4240   14.2740   21.3110 C   0  0  0  0  0  0  0  0  0  0  0  0
  1  2  1  0
  2  3  2  0
  3  4  1  0
  4  5  1  0
  4  6  2  0
  6  7  1  0
  7  8  1  0
  8  9  1  0
  9 10  1  0
 10 11  2  0
 11 12  1  0
 12 13  1  0
 12 14  2  0
 14 15  1  0
 15 16  2  0
 16 17  1  0
 17 18  1  0
 18 19  2  0
 18 20  1  0
 20 21  1  0
 21 22  2  0
  7 23  2  0
 23  2  1  0
 20  9  2  0
 17 11  1  0
A    1
 C1 
A    2
 C2 
A    3
 C3 
A    4
 C4 
A    5
 C5 
A    6
 C6 
A    7
 C7 
A    8
 N1 
A    9
 C8 
A   10
 N2 
A   11
 C9 
A   12
 C10
A   13
 C11
A   14
 C12
A   15
 C13
A   16
 C14
A   17
 N3 
A   18
 C15
A   19
 O1 
A   20
 C16
A   21
 C17
A   22
 O2 
A   23
 C18
M  END
>  <ref_url>  (104) 
nan

>  <submitter_name>  (104) 
nan

>  <submitter_email>  (104) 
nan

>  <submitter_institution>  (104) 
nan

>  <generation_date>  (104) 
nan

>  <method>  (104) 
nan

>  <rationale>  (104) 
info info set:bb_whole;hbond:S125+G127+C110; hydroph_interaction:Y89+Y90; 

>  <experiment>  (104) 
bb_whole

>  <cluster_label>  (104) 
16

>  <cluster_rank>  (104) 
7

>  <N_interactions>  (104) 
6

>  <∆∆G>  (104) 
-5.39766

>  <comRMSD>  (104) 
0.523781

>  <ROCS_TanimotoCombo>  (104) 
0.414

>  <ROCS_ShapeTanimoto>  (104) 
0.277

>  <ROCS_ColorTanimoto>  (104) 
0.137

>  <ref_pdb>  (104) 
A71x0310a

>  <ref_mols>  (104) 
A71x0446a,A71x1080a,A71x0812a,A71x0719a,A71x1140a,A71x0528a,A71x0310a

>  <original SMILES>  (104) 
Cc1cc(C)cc(Nc2nc3c(C)cccn3c(=O)c2C=O)c1

>  <origin>  (104) 
A71-ROCS-iter2.sdf

>  <butcher #BAD>  (104) 
3

>  <butcher #GOOD>  (104) 
20

>  <butcher #protein clash>  (104) 
3

>  <butcher #solvent space>  (104) 
0

>  <butcher #pocket>  (104) 
20

>  <butcher #P1>  (104) 
14

>  <butcher #P2>  (104) 
4

>  <butcher #P1'>  (104) 
2

>  <butcher #P2'>  (104) 
0

>  <butcher #P3>  (104) 
0

>  <butcher #P4>  (104) 
0

>  <butcher #P5>  (104) 
0

>  <butcher #P6>  (104) 
0

$$$$
EN300_12411
     RDKit          3D

 17 17  0  0  0  0  0  0  0  0999 V2000
    9.0790    9.0740   23.6570 C   0  0  0  0  0  0  0  0  0  0  0  0
    8.8170   10.4310   23.8900 C   0  0  0  0  0  0  0  0  0  0  0  0
    7.8670   10.9760   24.6700 C   0  0  0  0  0  0  0  0  0  0  0  0
    7.7110   12.4430   24.7910 C   0  0  0  0  0  0  0  0  0  0  0  0
    6.5280   13.2940   25.7310 S   0  0  0  0  0  6  0  0  0  0  0  0
    7.2500   13.5630   27.2210 N   0  0  0  0  0  0  0  0  0  0  0  0
    6.3790   14.5740   25.0800 O   0  0  0  0  0  0  0  0  0  0  0  0
    5.4450   12.3510   25.9060 O   0  0  0  0  0  0  0  0  0  0  0  0
    8.6580   13.2160   24.0320 C   0  0  0  0  0  0  0  0  0  0  0  0
    9.6200   12.5460   23.2540 C   0  0  0  0  0  0  0  0  0  0  0  0
   10.5930   13.2210   22.4860 N   0  0  0  0  0  0  0  0  0  0  0  0
   10.4360   14.2060   21.5410 C   0  0  0  0  0  0  0  0  0  0  0  0
    9.1550   14.6020   21.2770 O   0  0  0  0  0  0  0  0  0  0  0  0
   11.5610   14.7360   20.9490 C   0  0  0  0  0  0  0  0  0  0  0  0
   12.7210   15.1840   22.2140 Cl  0  0  0  0  0  0  0  0  0  0  0  0
    9.6380   11.1600   23.2210 C   0  0  0  0  0  0  0  0  0  0  0  0
   10.5330   10.2680   22.4660 C   0  0  0  0  0  0  0  0  0  0  0  0
  1  2  1  0
  2  3  2  0
  3  4  1  0
  4  5  1  0
  5  6  1  0
  5  7  2  0
  5  8  2  0
  4  9  2  0
  9 10  1  0
 10 11  1  0
 11 12  1  0
 12 13  2  0
 12 14  1  0
 14 15  1  0
 10 16  2  0
 16 17  1  0
 16  2  1  0
A    1
 C1 
A    2
 C2 
A    3
 C3 
A    4
 C4 
A    5
 S1 
A    6
 N1 
A    7
 O1 
A    8
 O2 
A    9
 C5 
A   10
 C6 
A   11
 N2 
A   12
 C7 
A   13
 O3 
A   14
 C8 
A   15
CL1 
A   16
 C9 
A   17
 C10
M  END
>  <ref_url>  (105) 
nan

>  <submitter_name>  (105) 
nan

>  <submitter_email>  (105) 
nan

>  <submitter_institution>  (105) 
nan

>  <generation_date>  (105) 
nan

>  <method>  (105) 
nan

>  <rationale>  (105) 
info info set:sulfonimide_whole;halogenbond:E88; hbond:S87; 

>  <experiment>  (105) 
sulfonimide_whole

>  <cluster_label>  (105) 
7

>  <cluster_rank>  (105) 
7

>  <N_interactions>  (105) 
2

>  <∆∆G>  (105) 
-7.561791

>  <comRMSD>  (105) 
0.469124

>  <ROCS_TanimotoCombo>  (105) 
0.362

>  <ROCS_ShapeTanimoto>  (105) 
0.223

>  <ROCS_ColorTanimoto>  (105) 
0.14

>  <ref_pdb>  (105) 
A71x0310a

>  <ref_mols>  (105) 
A71x0446a,A71x1080a,A71x0812a,A71x0719a,A71x1140a,A71x0528a,A71x0310a

>  <original SMILES>  (105) 
Cc1cc(S(N)(=O)=O)cc(NC(=O)CCl)c1C

>  <origin>  (105) 
A71-ROCS-iter2.sdf

>  <butcher #BAD>  (105) 
1

>  <butcher #GOOD>  (105) 
16

>  <butcher #protein clash>  (105) 
0

>  <butcher #solvent space>  (105) 
1

>  <butcher #pocket>  (105) 
16

>  <butcher #P1>  (105) 
12

>  <butcher #P2>  (105) 
2

>  <butcher #P1'>  (105) 
1

>  <butcher #P2'>  (105) 
0

>  <butcher #P3>  (105) 
1

>  <butcher #P4>  (105) 
0

>  <butcher #P5>  (105) 
0

>  <butcher #P6>  (105) 
0

$$$$
EN300_125224
     RDKit          3D

 18 18  0  0  0  0  0  0  0  0999 V2000
    7.8960   11.0060   24.7860 C   0  0  0  0  0  0  0  0  0  0  0  0
    8.6760   12.0760   24.3470 C   0  0  0  0  0  0  0  0  0  0  0  0
    9.4550   11.9110   23.2080 C   0  0  0  0  0  0  0  0  0  0  0  0
    7.8560   13.4000   24.2950 C   0  0  0  0  0  0  0  0  0  0  0  0
    7.1060   13.7500   22.9560 C   0  0  0  0  0  0  0  0  0  0  0  0
    7.5580   13.5380   21.8520 O   0  0  0  0  0  0  0  0  0  0  0  0
    5.8420   14.3210   23.1370 N   0  0  0  0  0  0  0  0  0  0  0  0
    4.8730   14.5540   22.0300 C   0  0  0  0  0  0  0  0  0  0  0  0
    5.1990   13.7250   20.7820 C   0  0  0  0  0  0  0  0  0  0  0  0
    4.1160   12.9840   19.9840 C   0  0  0  0  0  0  0  0  0  0  0  0
    4.0700   11.5780   19.4320 C   0  0  0  0  0  0  0  0  0  0  0  0
    2.8060   11.2370   18.6270 C   0  0  0  0  0  0  0  0  0  0  0  0
    1.9750   12.5210   18.6670 C   0  0  0  0  0  0  0  0  0  0  0  0
    0.4190   13.0180   17.9790 S   0  0  0  0  0  6  0  0  0  0  0  0
   -0.8260   12.2400   18.7550 N   0  0  0  0  0  0  0  0  0  0  0  0
    0.4230   12.5660   16.6120 O   0  0  0  0  0  0  0  0  0  0  0  0
    0.2800   14.3890   18.3910 O   0  0  0  0  0  0  0  0  0  0  0  0
    2.6890   13.7870   19.5670 S   0  0  0  0  0  0  0  0  0  0  0  0
  1  2  1  0
  2  3  1  0
  2  4  1  0
  4  5  1  0
  5  6  2  0
  5  7  1  0
  7  8  1  0
  8  9  1  0
  9 10  1  0
 10 11  2  0
 11 12  1  0
 12 13  2  0
 13 14  1  0
 14 15  1  0
 14 16  2  0
 14 17  2  0
 13 18  1  0
 18 10  1  0
A    1
 C1 
A    2
 C2 
A    3
 C3 
A    4
 C4 
A    5
 C5 
A    6
 O1 
A    7
 N1 
A    8
 C6 
A    9
 C7 
A   10
 C8 
A   11
 C9 
A   12
 C10
A   13
 C11
A   14
 S1 
A   15
 N2 
A   16
 O2 
A   17
 O3 
A   18
 S2 
M  END
>  <ref_url>  (106) 
nan

>  <submitter_name>  (106) 
nan

>  <submitter_email>  (106) 
nan

>  <submitter_institution>  (106) 
nan

>  <generation_date>  (106) 
nan

>  <method>  (106) 
nan

>  <rationale>  (106) 
info info set:sulfonimide_joint;hbond:G127; hydroph_interaction:P107+V84+L100+L131; 

>  <experiment>  (106) 
sulfonimide_joint

>  <cluster_label>  (106) 
17

>  <cluster_rank>  (106) 
7

>  <N_interactions>  (106) 
5

>  <∆∆G>  (106) 
-5.263086

>  <comRMSD>  (106) 
0.897423

>  <ROCS_TanimotoCombo>  (106) 
0.367

>  <ROCS_ShapeTanimoto>  (106) 
0.25

>  <ROCS_ColorTanimoto>  (106) 
0.117

>  <ref_pdb>  (106) 
A71x0310a

>  <ref_mols>  (106) 
A71x0446a,A71x1080a,A71x0812a,A71x0719a,A71x1140a,A71x0528a,A71x0310a

>  <original SMILES>  (106) 
CC(C)CC(=O)NCCc1ccc(S(N)(=O)=O)s1

>  <origin>  (106) 
A71-ROCS-iter2.sdf

>  <butcher #BAD>  (106) 
3

>  <butcher #GOOD>  (106) 
15

>  <butcher #protein clash>  (106) 
1

>  <butcher #solvent space>  (106) 
2

>  <butcher #pocket>  (106) 
15

>  <butcher #P1>  (106) 
6

>  <butcher #P2>  (106) 
0

>  <butcher #P1'>  (106) 
0

>  <butcher #P2'>  (106) 
0

>  <butcher #P3>  (106) 
4

>  <butcher #P4>  (106) 
0

>  <butcher #P5>  (106) 
4

>  <butcher #P6>  (106) 
1

$$$$
EN300_227550
     RDKit          3D

 15 15  0  0  0  0  0  0  0  0999 V2000
   11.1490   14.1570   23.8380 C   0  0  0  0  0  0  0  0  0  0  0  0
   10.0430   14.3300   23.3140 O   0  0  0  0  0  0  0  0  0  0  0  0
    9.0080   14.0600   24.1730 C   0  0  1  0  0  0  0  0  0  0  0  0
    9.2020   14.7730   25.5180 C   0  0  0  0  0  0  0  0  0  0  0  0
    7.6470   14.5200   23.6900 C   0  0  0  0  0  0  0  0  0  0  0  0
    7.2770   14.5860   21.9290 S   0  0  0  0  0  6  0  0  0  0  0  0
    5.9220   15.5680   22.1270 N   0  0  0  0  0  0  0  0  0  0  0  0
    6.7500   13.3790   21.4290 O   0  0  0  0  0  0  0  0  0  0  0  0
    8.2960   15.2760   21.1630 O   0  0  0  0  0  0  0  0  0  0  0  0
    8.9210   12.6710   24.1700 C   0  0  0  0  0  0  0  0  0  0  0  0
    7.9080   11.8990   25.0260 C   0  0  0  0  0  0  0  0  0  0  0  0
    7.7930   10.4210   25.0230 C   0  0  0  0  0  0  0  0  0  0  0  0
    8.7730    9.7180   24.0890 C   0  0  0  0  0  0  0  0  0  0  0  0
    9.6800   10.4040   23.3210 C   0  0  0  0  0  0  0  0  0  0  0  0
    9.7780   11.9310   23.3420 C   0  0  0  0  0  0  0  0  0  0  0  0
  1  2  1  0
  3  2  1  0
  3  4  1  1
  3  5  1  0
  5  6  1  0
  6  7  1  0
  6  8  2  0
  6  9  2  0
  3 10  1  0
 10 11  2  0
 11 12  1  0
 12 13  2  0
 13 14  1  0
 14 15  2  0
 15 10  1  0
A    1
 C1 
A    2
 O1 
A    3
 C2 
A    4
 C3 
A    5
 C4 
A    6
 S1 
A    7
 N1 
A    8
 O2 
A    9
 O3 
A   10
 C5 
A   11
 C6 
A   12
 C7 
A   13
 C8 
A   14
 C9 
A   15
 C10
M  END
>  <ref_url>  (107) 
nan

>  <submitter_name>  (107) 
nan

>  <submitter_email>  (107) 
nan

>  <submitter_institution>  (107) 
nan

>  <generation_date>  (107) 
nan

>  <method>  (107) 
nan

>  <rationale>  (107) 
info info set:sulfonimide_whole;hbond:S87+G127+A86; hydroph_interaction:P107; 

>  <experiment>  (107) 
sulfonimide_whole

>  <cluster_label>  (107) 
5

>  <cluster_rank>  (107) 
7

>  <N_interactions>  (107) 
4

>  <∆∆G>  (107) 
-8.179007

>  <comRMSD>  (107) 
0.442356

>  <ROCS_TanimotoCombo>  (107) 
0.368

>  <ROCS_ShapeTanimoto>  (107) 
0.195

>  <ROCS_ColorTanimoto>  (107) 
0.173

>  <ref_pdb>  (107) 
A71x0310a

>  <ref_mols>  (107) 
A71x0446a,A71x1080a,A71x0812a,A71x0719a,A71x1140a,A71x0528a,A71x0310a

>  <original SMILES>  (107) 
CO[C@@](C)(CS(N)(=O)=O)c1ccccc1

>  <origin>  (107) 
A71-ROCS-iter2.sdf

>  <butcher #BAD>  (107) 
0

>  <butcher #GOOD>  (107) 
15

>  <butcher #protein clash>  (107) 
0

>  <butcher #solvent space>  (107) 
0

>  <butcher #pocket>  (107) 
15

>  <butcher #P1>  (107) 
12

>  <butcher #P2>  (107) 
2

>  <butcher #P1'>  (107) 
0

>  <butcher #P2'>  (107) 
0

>  <butcher #P3>  (107) 
1

>  <butcher #P4>  (107) 
0

>  <butcher #P5>  (107) 
0

>  <butcher #P6>  (107) 
0

$$$$
EN300_26177738
     RDKit          3D

 20 21  0  0  0  0  0  0  0  0999 V2000
    7.2350   13.1960   27.1550 N   0  0  0  0  0  0  0  0  0  0  0  0
    6.4380   12.8930   25.6970 S   0  0  0  0  0  6  0  0  0  0  0  0
    6.1560   14.1950   25.1240 O   0  0  0  0  0  0  0  0  0  0  0  0
    5.4090   11.9380   26.0150 O   0  0  0  0  0  0  0  0  0  0  0  0
    7.7310   12.1190   24.7520 C   0  0  0  0  0  0  0  0  0  0  0  0
    7.8780   10.6440   24.8160 C   0  0  0  0  0  0  0  0  0  0  0  0
    8.8910   10.0640   24.0590 C   0  0  0  0  0  0  0  0  0  0  0  0
    9.7210   10.8670   23.2860 C   0  0  0  0  0  0  0  0  0  0  0  0
    9.5520   12.2600   23.2600 C   0  0  0  0  0  0  0  0  0  0  0  0
   10.4030   12.9890   22.4870 N   0  0  0  0  0  0  0  0  0  0  0  0
   10.1130   14.1120   21.7660 C   0  0  0  0  0  0  0  0  0  0  0  0
    8.8690   14.7320   21.4990 O   0  0  0  0  0  0  0  0  0  0  0  0
   11.3880   14.6440   21.2030 C   0  0  0  0  0  0  0  0  0  0  0  0
   11.3610   14.4710   19.7220 C   0  0  0  0  0  0  0  0  0  0  0  0
   12.5620   14.8700   18.9680 C   0  0  0  0  0  0  0  0  0  0  0  0
   13.7590   15.4600   19.7400 C   0  0  0  0  0  0  0  0  0  0  0  0
   13.6420   15.5970   21.2320 C   0  0  0  0  0  0  0  0  0  0  0  0
   12.4080   15.1670   21.9340 C   0  0  0  0  0  0  0  0  0  0  0  0
   12.3490   15.2970   23.2620 F   0  0  0  0  0  0  0  0  0  0  0  0
    8.5660   12.8820   23.9830 C   0  0  0  0  0  0  0  0  0  0  0  0
  1  2  1  0
  2  3  2  0
  2  4  2  0
  2  5  1  0
  5  6  2  0
  6  7  1  0
  7  8  2  0
  8  9  1  0
  9 10  1  0
 10 11  1  0
 11 12  2  0
 11 13  1  0
 13 14  2  0
 14 15  1  0
 15 16  2  0
 16 17  1  0
 17 18  2  0
 18 19  1  0
  9 20  2  0
 20  5  1  0
 18 13  1  0
A    1
 N1 
A    2
 S1 
A    3
 O1 
A    4
 O2 
A    5
 C1 
A    6
 C2 
A    7
 C3 
A    8
 C4 
A    9
 C5 
A   10
 N2 
A   11
 C6 
A   12
 O3 
A   13
 C7 
A   14
 C8 
A   15
 C9 
A   16
 C10
A   17
 C11
A   18
 C12
A   19
 F1 
A   20
 C13
M  END
>  <ref_url>  (108) 
nan

>  <submitter_name>  (108) 
nan

>  <submitter_email>  (108) 
nan

>  <submitter_institution>  (108) 
nan

>  <generation_date>  (108) 
nan

>  <method>  (108) 
nan

>  <rationale>  (108) 
info info set:sulfonimide_whole;hbond:S87; hydroph_interaction:Y89+Y90+H21+D39; 

>  <experiment>  (108) 
sulfonimide_whole

>  <cluster_label>  (108) 
8

>  <cluster_rank>  (108) 
7

>  <N_interactions>  (108) 
5

>  <∆∆G>  (108) 
-6.008831

>  <comRMSD>  (108) 
0.477379

>  <ROCS_TanimotoCombo>  (108) 
0.349

>  <ROCS_ShapeTanimoto>  (108) 
0.213

>  <ROCS_ColorTanimoto>  (108) 
0.136

>  <ref_pdb>  (108) 
A71x0310a

>  <ref_mols>  (108) 
A71x0446a,A71x1080a,A71x0812a,A71x0719a,A71x1140a,A71x0528a,A71x0310a

>  <original SMILES>  (108) 
NS(=O)(=O)c1cccc(NC(=O)c2ccccc2F)c1

>  <origin>  (108) 
A71-ROCS-iter2.sdf

>  <butcher #BAD>  (108) 
4

>  <butcher #GOOD>  (108) 
16

>  <butcher #protein clash>  (108) 
3

>  <butcher #solvent space>  (108) 
1

>  <butcher #pocket>  (108) 
16

>  <butcher #P1>  (108) 
10

>  <butcher #P2>  (108) 
3

>  <butcher #P1'>  (108) 
2

>  <butcher #P2'>  (108) 
0

>  <butcher #P3>  (108) 
1

>  <butcher #P4>  (108) 
0

>  <butcher #P5>  (108) 
0

>  <butcher #P6>  (108) 
0

$$$$
Z31110920
     RDKit          3D

 24 27  0  0  0  0  0  0  0  0999 V2000
   14.7100   14.5890   23.0060 C   0  0  0  0  0  0  0  0  0  0  0  0
   13.2440   14.5240   22.8870 C   0  0  0  0  0  0  0  0  0  0  0  0
   12.6960   13.9350   23.9670 C   0  0  0  0  0  0  0  0  0  0  0  0
   11.3450   13.7910   24.0270 C   0  0  0  0  0  0  0  0  0  0  0  0
   10.5710   14.2420   22.9930 C   0  0  0  0  0  0  0  0  0  0  0  0
    9.2410   14.0560   23.1380 O   0  0  0  0  0  0  0  0  0  0  0  0
    8.9870   12.7740   23.5380 C   0  0  0  0  0  0  0  0  0  0  0  0
    9.7910   11.8100   23.0910 N   0  0  0  0  0  0  0  0  0  0  0  0
    9.5500   10.5580   23.4650 C   0  0  0  0  0  0  0  0  0  0  0  0
   10.4560    9.5500   22.8610 C   0  0  0  0  0  0  0  0  0  0  0  0
    8.5850   10.1540   24.2900 N   0  0  0  0  0  0  0  0  0  0  0  0
    7.8060   11.1590   24.7160 C   0  0  0  0  0  0  0  0  0  0  0  0
    6.4890   10.8840   25.7840 S   0  0  0  0  0  0  0  0  0  0  0  0
    6.0840   12.5100   25.7290 C   0  0  0  0  0  0  0  0  0  0  0  0
    6.9200   13.2660   24.9630 C   0  0  0  0  0  0  0  0  0  0  0  0
    7.9350   12.4930   24.3690 C   0  0  0  0  0  0  0  0  0  0  0  0
    6.5040   14.6910   24.9700 C   0  0  0  0  0  0  0  0  0  0  0  0
    5.0130   14.5440   25.3950 C   0  0  0  0  0  0  0  0  0  0  0  0
    4.9940   13.3020   26.3440 C   0  0  0  0  0  0  0  0  0  0  0  0
   11.1500   14.8340   21.9010 C   0  0  0  0  0  0  0  0  0  0  0  0
   10.1530   15.2500   20.8840 N   0  0  0  0  0  4  0  0  0  0  0  0
    8.9840   14.8770   21.0760 O   0  0  0  0  0  0  0  0  0  0  0  0
   10.4300   16.1770   20.1520 O   0  0  0  0  0  1  0  0  0  0  0  0
   12.5210   15.0000   21.8180 N   0  0  0  0  0  0  0  0  0  0  0  0
  1  2  1  0
  2  3  2  0
  3  4  1  0
  4  5  2  0
  5  6  1  0
  6  7  1  0
  7  8  2  0
  8  9  1  0
  9 10  1  0
  9 11  2  0
 11 12  1  0
 12 13  1  0
 13 14  1  0
 14 15  2  0
 15 16  1  0
 15 17  1  0
 17 18  1  0
 18 19  1  0
  5 20  1  0
 20 21  1  0
 21 22  2  0
 21 23  1  0
 20 24  2  0
 24  2  1  0
 16  7  1  0
 16 12  2  0
 19 14  1  0
M  CHG  2  21   1  23  -1
A    1
 C1 
A    2
 C2 
A    3
 C3 
A    4
 C4 
A    5
 C5 
A    6
 O1 
A    7
 C6 
A    8
 N1 
A    9
 C7 
A   10
 C8 
A   11
 N2 
A   12
 C9 
A   13
 S1 
A   14
 C10
A   15
 C11
A   16
 C12
A   17
 C13
A   18
 C14
A   19
 C15
A   20
 C16
A   21
 N3 
A   22
 O2 
A   23
 O3 
A   24
 N4 
M  END
>  <ref_url>  (109) 
nan

>  <submitter_name>  (109) 
nan

>  <submitter_email>  (109) 
nan

>  <submitter_institution>  (109) 
nan

>  <generation_date>  (109) 
nan

>  <method>  (109) 
nan

>  <rationale>  (109) 
info info set:screening_whole;hbond:S87; hydroph_interaction:P107+Y89+V124+H21; 

>  <experiment>  (109) 
screening_whole

>  <cluster_label>  (109) 
9

>  <cluster_rank>  (109) 
7

>  <N_interactions>  (109) 
5

>  <∆∆G>  (109) 
-8.56426

>  <comRMSD>  (109) 
0.64578

>  <ROCS_TanimotoCombo>  (109) 
0.466

>  <ROCS_ShapeTanimoto>  (109) 
0.267

>  <ROCS_ColorTanimoto>  (109) 
0.199

>  <ref_pdb>  (109) 
A71x0310a

>  <ref_mols>  (109) 
A71x0446a,A71x1080a,A71x0812a,A71x0719a,A71x1140a,A71x0528a,A71x0310a

>  <original SMILES>  (109) 
Cc1ccc(Oc2nc(C)nc3sc4c(c23)CCC4)c([N+](=O)[O-])n1

>  <origin>  (109) 
A71-ROCS-iter2.sdf

>  <butcher #BAD>  (109) 
1

>  <butcher #GOOD>  (109) 
23

>  <butcher #protein clash>  (109) 
1

>  <butcher #solvent space>  (109) 
0

>  <butcher #pocket>  (109) 
23

>  <butcher #P1>  (109) 
13

>  <butcher #P2>  (109) 
4

>  <butcher #P1'>  (109) 
3

>  <butcher #P2'>  (109) 
0

>  <butcher #P3>  (109) 
3

>  <butcher #P4>  (109) 
0

>  <butcher #P5>  (109) 
0

>  <butcher #P6>  (109) 
0

$$$$
EN300_746189
     RDKit          3D

 18 18  0  0  0  0  0  0  0  0999 V2000
   12.0290   16.5090   21.6660 C   0  0  0  0  0  0  0  0  0  0  0  0
   12.4650   15.0810   21.7330 C   0  0  0  0  0  0  0  0  0  0  0  0
   13.4640   14.8640   22.8300 C   0  0  0  0  0  0  0  0  0  0  0  0
   12.9930   14.7520   20.3510 C   0  0  0  0  0  0  0  0  0  0  0  0
   11.2890   14.3190   22.0130 O   0  0  0  0  0  0  0  0  0  0  0  0
   11.3500   13.5210   23.0830 C   0  0  0  0  0  0  0  0  0  0  0  0
   11.8610   13.7960   24.1530 O   0  0  0  0  0  0  0  0  0  0  0  0
   10.7280   12.3570   22.8200 N   0  0  0  0  0  0  0  0  0  0  0  0
    9.7310   12.0400   23.7940 C   0  0  2  0  0  0  0  0  0  0  0  0
    9.0830   10.6710   23.8400 C   0  0  0  0  0  0  0  0  0  0  0  0
    7.9010   10.9650   24.8020 C   0  0  0  0  0  0  0  0  0  0  0  0
    7.7930   12.5010   24.8720 C   0  0  2  0  0  0  0  0  0  0  0  0
    6.5030   13.2710   24.7900 C   0  0  0  0  0  0  0  0  0  0  0  0
    6.6300   14.3190   23.3330 S   0  0  0  0  0  6  0  0  0  0  0  0
    5.2130   15.2190   23.1860 N   0  0  0  0  0  0  0  0  0  0  0  0
    6.7940   13.6180   22.0600 O   0  0  0  0  0  0  0  0  0  0  0  0
    7.6290   15.2220   23.7690 O   0  0  0  0  0  0  0  0  0  0  0  0
    8.6020   12.9520   23.6830 C   0  0  0  0  0  0  0  0  0  0  0  0
  1  2  1  0
  2  3  1  0
  2  4  1  0
  2  5  1  0
  5  6  1  0
  6  7  2  0
  6  8  1  0
  9  8  1  6
  9 10  1  0
 10 11  1  0
 11 12  1  0
 12 13  1  6
 13 14  1  0
 14 15  1  0
 14 16  2  0
 14 17  2  0
 12 18  1  0
 18  9  1  0
A    1
 C1 
A    2
 C2 
A    3
 C3 
A    4
 C4 
A    5
 O1 
A    6
 C5 
A    7
 O2 
A    8
 N1 
A    9
 C6 
A   10
 C7 
A   11
 C8 
A   12
 C9 
A   13
 C10
A   14
 S1 
A   15
 N2 
A   16
 O3 
A   17
 O4 
A   18
 C11
M  END
>  <ref_url>  (110) 
nan

>  <submitter_name>  (110) 
nan

>  <submitter_email>  (110) 
nan

>  <submitter_institution>  (110) 
nan

>  <generation_date>  (110) 
nan

>  <method>  (110) 
nan

>  <rationale>  (110) 
info info set:sulfonimide_whole;hbond:S87+S125+G127+E85; hydroph_interaction:Y89+Y90; 

>  <experiment>  (110) 
sulfonimide_whole

>  <cluster_label>  (110) 
3

>  <cluster_rank>  (110) 
7

>  <N_interactions>  (110) 
8

>  <∆∆G>  (110) 
-4.53228

>  <comRMSD>  (110) 
0.920273

>  <ROCS_TanimotoCombo>  (110) 
0.358

>  <ROCS_ShapeTanimoto>  (110) 
0.22

>  <ROCS_ColorTanimoto>  (110) 
0.138

>  <ref_pdb>  (110) 
A71x0310a

>  <ref_mols>  (110) 
A71x0446a,A71x1080a,A71x0812a,A71x0719a,A71x1140a,A71x0528a,A71x0310a

>  <original SMILES>  (110) 
CC(C)(C)OC(=O)N[C@@H]1CC[C@H](CS(N)(=O)=O)C1

>  <origin>  (110) 
A71-ROCS-iter2.sdf

>  <butcher #BAD>  (110) 
2

>  <butcher #GOOD>  (110) 
16

>  <butcher #protein clash>  (110) 
2

>  <butcher #solvent space>  (110) 
0

>  <butcher #pocket>  (110) 
16

>  <butcher #P1>  (110) 
11

>  <butcher #P2>  (110) 
0

>  <butcher #P1'>  (110) 
3

>  <butcher #P2'>  (110) 
0

>  <butcher #P3>  (110) 
2

>  <butcher #P4>  (110) 
0

>  <butcher #P5>  (110) 
0

>  <butcher #P6>  (110) 
0

$$$$
Z3079948510
     RDKit          3D

 18 19  0  0  0  0  0  0  0  0999 V2000
    6.0330   11.4870   28.0040 C   0  0  0  0  0  0  0  0  0  0  0  0
    5.7000   10.8530   26.6880 C   0  0  0  0  0  0  0  0  0  0  0  0
    6.6310   10.1280   26.1170 N   0  0  0  0  0  0  0  0  0  0  0  0
    7.5000   10.7550   25.2380 C   0  0  0  0  0  0  0  0  0  0  0  0
    7.4600   12.2810   25.1060 C   0  0  0  0  0  0  0  0  0  0  0  0
    8.4870   12.7840   24.1190 C   0  0  0  0  0  0  0  0  0  0  0  0
    9.3990   11.8150   23.3980 C   0  0  0  0  0  0  0  0  0  0  0  0
   10.3600   12.2330   22.4940 N   0  0  0  0  0  0  0  0  0  0  0  0
   11.0820   13.4060   22.5900 C   0  0  0  0  0  0  0  0  0  0  0  0
   11.6700   14.2480   21.4650 C   0  0  0  0  0  0  0  0  0  0  0  0
   12.3770   15.4030   21.7680 C   0  0  0  0  0  0  0  0  0  0  0  0
   12.5460   15.7940   23.0320 N   0  0  0  0  0  0  0  0  0  0  0  0
   12.0110   15.0300   24.0110 C   0  0  0  0  0  0  0  0  0  0  0  0
   12.1520   15.4010   25.3380 C   0  0  0  0  0  0  0  0  0  0  0  0
   13.4100   15.1640   25.9140 C   0  0  0  0  0  0  0  0  0  0  0  0
   11.2550   13.8010   23.8330 N   0  0  0  0  0  0  0  0  0  0  0  0
    9.2400   10.4650   23.6840 C   0  0  0  0  0  0  0  0  0  0  0  0
    8.3450    9.9400   24.5480 N   0  0  0  0  0  0  0  0  0  0  0  0
  1  2  1  0
  2  3  1  0
  3  4  1  0
  4  5  2  0
  5  6  1  0
  6  7  2  0
  7  8  1  0
  8  9  1  0
  9 10  2  0
 10 11  1  0
 11 12  2  0
 12 13  1  0
 13 14  1  0
 14 15  1  0
 13 16  2  0
  7 17  1  0
 17 18  2  0
 18  4  1  0
 16  9  1  0
A    1
 C1 
A    2
 C2 
A    3
 N1 
A    4
 C3 
A    5
 C4 
A    6
 C5 
A    7
 C6 
A    8
 N2 
A    9
 C7 
A   10
 C8 
A   11
 C9 
A   12
 N3 
A   13
 C10
A   14
 C11
A   15
 C12
A   16
 N4 
A   17
 C13
A   18
 N5 
M  END
>  <ref_url>  (111) 
nan

>  <submitter_name>  (111) 
nan

>  <submitter_email>  (111) 
nan

>  <submitter_institution>  (111) 
nan

>  <generation_date>  (111) 
nan

>  <method>  (111) 
nan

>  <rationale>  (111) 
info info set:screening_pocket;hbond:S105+S125+G127; hydroph_interaction:P107+Y89+E88; pistack:H21; 

>  <experiment>  (111) 
screening_pocket

>  <cluster_label>  (111) 
12

>  <cluster_rank>  (111) 
7

>  <N_interactions>  (111) 
7

>  <∆∆G>  (111) 
-4.73824

>  <comRMSD>  (111) 
0.421274

>  <ROCS_TanimotoCombo>  (111) 
0.633

>  <ROCS_ShapeTanimoto>  (111) 
0.234

>  <ROCS_ColorTanimoto>  (111) 
0.399

>  <ref_pdb>  (111) 
A71x0310a

>  <ref_mols>  (111) 
A71x0446a,A71x1080a,A71x0812a,A71x0719a,A71x1140a,A71x0528a,A71x0310a

>  <original SMILES>  (111) 
CCNc1ccc(Nc2ccnc(CC)n2)cn1

>  <origin>  (111) 
A71-ROCS-iter2.sdf

>  <butcher #BAD>  (111) 
3

>  <butcher #GOOD>  (111) 
15

>  <butcher #protein clash>  (111) 
0

>  <butcher #solvent space>  (111) 
3

>  <butcher #pocket>  (111) 
15

>  <butcher #P1>  (111) 
10

>  <butcher #P2>  (111) 
0

>  <butcher #P1'>  (111) 
5

>  <butcher #P2'>  (111) 
0

>  <butcher #P3>  (111) 
0

>  <butcher #P4>  (111) 
0

>  <butcher #P5>  (111) 
0

>  <butcher #P6>  (111) 
0

$$$$
EN300_107670
     RDKit          3D

 17 17  0  0  0  0  0  0  0  0999 V2000
   10.6580    9.1130   22.6680 C   0  0  0  0  0  0  0  0  0  0  0  0
   10.6810   10.4880   22.4360 O   0  0  0  0  0  0  0  0  0  0  0  0
    9.7410   11.0600   23.1820 C   0  0  0  0  0  0  0  0  0  0  0  0
    8.8220   10.2000   24.0420 C   0  0  0  0  0  0  0  0  0  0  0  0
    7.7570   10.8480   24.8810 C   0  0  0  0  0  0  0  0  0  0  0  0
    7.6950   12.3700   24.7810 C   0  0  0  0  0  0  0  0  0  0  0  0
    6.4930   13.2460   25.7010 S   0  0  0  0  0  6  0  0  0  0  0  0
    7.2340   13.4140   27.2350 N   0  0  0  0  0  0  0  0  0  0  0  0
    5.3230   12.4250   25.8990 O   0  0  0  0  0  0  0  0  0  0  0  0
    6.1760   14.5490   25.0280 O   0  0  0  0  0  0  0  0  0  0  0  0
    8.6940   13.1130   23.8700 C   0  0  0  0  0  0  0  0  0  0  0  0
    9.6530   12.4500   23.1300 C   0  0  0  0  0  0  0  0  0  0  0  0
   10.5760   13.1110   22.3000 N   0  0  0  0  0  0  0  0  0  0  0  0
   10.3790   14.1860   21.4620 C   0  0  0  0  0  0  0  0  0  0  0  0
    9.2990   14.7250   21.2240 O   0  0  0  0  0  0  0  0  0  0  0  0
   11.6650   14.6910   20.8140 C   0  0  0  0  0  0  0  0  0  0  0  0
   12.5510   15.6820   21.9810 Cl  0  0  0  0  0  0  0  0  0  0  0  0
  1  2  1  0
  2  3  1  0
  3  4  2  0
  4  5  1  0
  5  6  2  0
  6  7  1  0
  7  8  1  0
  7  9  2  0
  7 10  2  0
  6 11  1  0
 11 12  2  0
 12 13  1  0
 13 14  1  0
 14 15  2  0
 14 16  1  0
 16 17  1  0
 12  3  1  0
A    1
 C1 
A    2
 O1 
A    3
 C2 
A    4
 C3 
A    5
 C4 
A    6
 C5 
A    7
 S1 
A    8
 N1 
A    9
 O2 
A   10
 O3 
A   11
 C6 
A   12
 C7 
A   13
 N2 
A   14
 C8 
A   15
 O4 
A   16
 C9 
A   17
CL1 
M  END
>  <ref_url>  (112) 
nan

>  <submitter_name>  (112) 
nan

>  <submitter_email>  (112) 
nan

>  <submitter_institution>  (112) 
nan

>  <generation_date>  (112) 
nan

>  <method>  (112) 
nan

>  <rationale>  (112) 
info info set:sulfonimide_whole;halogenbond:E88; hbond:S87; 

>  <experiment>  (112) 
sulfonimide_whole

>  <cluster_label>  (112) 
7

>  <cluster_rank>  (112) 
8

>  <N_interactions>  (112) 
2

>  <∆∆G>  (112) 
-7.8201

>  <comRMSD>  (112) 
0.572419

>  <ROCS_TanimotoCombo>  (112) 
0.358

>  <ROCS_ShapeTanimoto>  (112) 
0.22

>  <ROCS_ColorTanimoto>  (112) 
0.138

>  <ref_pdb>  (112) 
A71x0310a

>  <ref_mols>  (112) 
A71x0446a,A71x1080a,A71x0812a,A71x0719a,A71x1140a,A71x0528a,A71x0310a

>  <original SMILES>  (112) 
COc1ccc(S(N)(=O)=O)cc1NC(=O)CCl

>  <origin>  (112) 
A71-ROCS-iter2.sdf

>  <butcher #BAD>  (112) 
1

>  <butcher #GOOD>  (112) 
16

>  <butcher #protein clash>  (112) 
0

>  <butcher #solvent space>  (112) 
1

>  <butcher #pocket>  (112) 
16

>  <butcher #P1>  (112) 
12

>  <butcher #P2>  (112) 
2

>  <butcher #P1'>  (112) 
1

>  <butcher #P2'>  (112) 
0

>  <butcher #P3>  (112) 
1

>  <butcher #P4>  (112) 
0

>  <butcher #P5>  (112) 
0

>  <butcher #P6>  (112) 
0

$$$$
Z2297678222
     RDKit          3D

 23 25  0  0  0  0  0  0  0  0999 V2000
   10.4150    9.4960   22.8790 C   0  0  0  0  0  0  0  0  0  0  0  0
    9.4260   10.4020   23.5290 C   0  0  0  0  0  0  0  0  0  0  0  0
    8.4030    9.9150   24.3920 N   0  0  0  0  0  0  0  0  0  0  0  0
    7.7190   11.0680   24.7080 C   0  0  0  0  0  0  0  0  0  0  0  0
    6.5950   11.2330   25.5100 C   0  0  0  0  0  0  0  0  0  0  0  0
    6.0830   12.5220   25.6270 C   0  0  0  0  0  0  0  0  0  0  0  0
    4.9860   12.6930   26.3790 F   0  0  0  0  0  0  0  0  0  0  0  0
    6.6490   13.6740   24.9910 C   0  0  0  0  0  0  0  0  0  0  0  0
    6.1030   14.8910   25.1390 F   0  0  0  0  0  0  0  0  0  0  0  0
    7.7820   13.5160   24.2110 C   0  0  0  0  0  0  0  0  0  0  0  0
    8.2790   12.2070   24.0900 C   0  0  0  0  0  0  0  0  0  0  0  0
    9.3360   11.7280   23.4030 N   0  0  0  0  0  0  0  0  0  0  0  0
   10.2170   12.5250   22.6460 C   0  0  0  0  0  0  0  0  0  0  0  0
   10.7700   13.4590   23.4200 C   0  0  0  0  0  0  0  0  0  0  0  0
   10.8710   13.3980   24.6280 O   0  0  0  0  0  0  0  0  0  0  0  0
   11.2180   14.5070   22.7560 N   0  0  0  0  0  0  0  0  0  0  0  0
   12.2500   15.2310   23.4410 C   0  0  0  0  0  0  0  0  0  0  0  0
   12.7450   15.9850   22.4630 C   0  0  0  0  0  0  0  0  0  0  0  0
   12.1520   15.6250   21.1500 C   0  0  0  0  0  0  0  0  0  0  0  0
   11.3360   14.5620   21.2930 C   0  0  2  0  0  0  0  0  0  0  0  0
   10.0110   14.8960   20.5460 C   0  0  0  0  0  0  0  0  0  0  0  0
   10.1450   15.3310   19.2650 N   0  0  0  0  0  0  0  0  0  0  0  0
    8.6890   14.7780   21.1370 O   0  0  0  0  0  0  0  0  0  0  0  0
  1  2  1  0
  2  3  2  0
  3  4  1  0
  4  5  2  0
  5  6  1  0
  6  7  1  0
  6  8  2  0
  8  9  1  0
  8 10  1  0
 10 11  2  0
 11 12  1  0
 12 13  1  0
 13 14  1  0
 14 15  2  0
 14 16  1  0
 16 17  1  0
 17 18  1  0
 18 19  1  0
 19 20  1  0
 20 21  1  6
 21 22  1  0
 21 23  2  0
 12  2  1  0
 20 16  1  0
 11  4  1  0
A    1
 C1 
A    2
 C2 
A    3
 N1 
A    4
 C3 
A    5
 C4 
A    6
 C5 
A    7
 F1 
A    8
 C6 
A    9
 F2 
A   10
 C7 
A   11
 C8 
A   12
 N2 
A   13
 C9 
A   14
 C10
A   15
 O1 
A   16
 N3 
A   17
 C11
A   18
 C12
A   19
 C13
A   20
 C14
A   21
 C15
A   22
 N4 
A   23
 O2 
M  END
>  <ref_url>  (113) 
nan

>  <submitter_name>  (113) 
nan

>  <submitter_email>  (113) 
nan

>  <submitter_institution>  (113) 
nan

>  <generation_date>  (113) 
nan

>  <method>  (113) 
nan

>  <rationale>  (113) 
info info set:screening_whole;hbond:S87+Q95; hydroph_interaction:Y89+Y90+V124; 

>  <experiment>  (113) 
screening_whole

>  <cluster_label>  (113) 
18

>  <cluster_rank>  (113) 
8

>  <N_interactions>  (113) 
5

>  <∆∆G>  (113) 
-5.870184

>  <comRMSD>  (113) 
0.541219

>  <ROCS_TanimotoCombo>  (113) 
0.454

>  <ROCS_ShapeTanimoto>  (113) 
0.274

>  <ROCS_ColorTanimoto>  (113) 
0.18

>  <ref_pdb>  (113) 
A71x0310a

>  <ref_mols>  (113) 
A71x0446a,A71x1080a,A71x0812a,A71x0719a,A71x1140a,A71x0528a,A71x0310a

>  <original SMILES>  (113) 
Cc1nc2cc(F)c(F)cc2n1CC(=O)N1CCC[C@@H]1C(N)=O

>  <origin>  (113) 
A71-ROCS-iter2.sdf

>  <butcher #BAD>  (113) 
1

>  <butcher #GOOD>  (113) 
22

>  <butcher #protein clash>  (113) 
0

>  <butcher #solvent space>  (113) 
1

>  <butcher #pocket>  (113) 
22

>  <butcher #P1>  (113) 
14

>  <butcher #P2>  (113) 
5

>  <butcher #P1'>  (113) 
2

>  <butcher #P2'>  (113) 
0

>  <butcher #P3>  (113) 
1

>  <butcher #P4>  (113) 
0

>  <butcher #P5>  (113) 
0

>  <butcher #P6>  (113) 
0

$$$$
EN300_3055818
     RDKit          3D

 13 13  0  0  0  0  0  0  0  0999 V2000
   10.3470    9.4020   22.1120 C   0  0  0  0  0  0  0  0  0  0  0  0
    9.9370    9.3420   23.4430 N   0  0  0  0  0  0  0  0  0  0  0  0
    9.1580   10.3870   23.9400 C   0  0  0  0  0  0  0  0  0  0  0  0
    8.1100    9.9930   24.8430 N   0  0  0  0  0  0  0  0  0  0  0  0
    7.2960   10.9070   25.4170 C   0  0  0  0  0  0  0  0  0  0  0  0
    7.5080   12.3550   25.0870 C   0  0  0  0  0  0  0  0  0  0  0  0
    6.5750   13.4230   25.7610 C   0  0  0  0  0  0  0  0  0  0  0  0
    6.8720   14.5990   25.8850 O   0  0  0  0  0  0  0  0  0  0  0  0
    5.4280   12.8240   26.1840 O   0  0  0  0  0  0  0  0  0  0  0  0
    4.3620   13.7280   26.4610 C   0  0  0  0  0  0  0  0  0  0  0  0
    8.5290   12.7190   24.1990 C   0  0  0  0  0  0  0  0  0  0  0  0
    9.3700   11.7640   23.6090 C   0  0  0  0  0  0  0  0  0  0  0  0
   10.3780   12.2720   22.7320 N   0  0  0  0  0  0  0  0  0  0  0  0
  1  2  1  0
  2  3  1  0
  3  4  2  0
  4  5  1  0
  5  6  2  0
  6  7  1  0
  7  8  2  0
  7  9  1  0
  9 10  1  0
  6 11  1  0
 11 12  2  0
 12 13  1  0
 12  3  1  0
A    1
 C1 
A    2
 N1 
A    3
 C2 
A    4
 N2 
A    5
 C3 
A    6
 C4 
A    7
 C5 
A    8
 O1 
A    9
 O2 
A   10
 C6 
A   11
 C7 
A   12
 C8 
A   13
 N3 
M  END
>  <ref_url>  (114) 
nan

>  <submitter_name>  (114) 
nan

>  <submitter_email>  (114) 
nan

>  <submitter_institution>  (114) 
nan

>  <generation_date>  (114) 
nan

>  <method>  (114) 
nan

>  <rationale>  (114) 
info info set:bb_densepocket2;hbond:S125+G127+E106; 

>  <experiment>  (114) 
bb_densepocket2

>  <cluster_label>  (114) 
6

>  <cluster_rank>  (114) 
8

>  <N_interactions>  (114) 
3

>  <∆∆G>  (114) 
-4.902583

>  <comRMSD>  (114) 
0.347309

>  <ROCS_TanimotoCombo>  (114) 
0.624

>  <ROCS_ShapeTanimoto>  (114) 
0.23

>  <ROCS_ColorTanimoto>  (114) 
0.394

>  <ref_pdb>  (114) 
A71x0310a

>  <ref_mols>  (114) 
A71x0446a,A71x1080a,A71x0812a,A71x0719a,A71x1140a,A71x0528a,A71x0310a

>  <original SMILES>  (114) 
CNc1ncc(C(=O)OC)cc1N

>  <origin>  (114) 
A71-ROCS-iter2.sdf

>  <butcher #BAD>  (114) 
2

>  <butcher #GOOD>  (114) 
11

>  <butcher #protein clash>  (114) 
1

>  <butcher #solvent space>  (114) 
1

>  <butcher #pocket>  (114) 
11

>  <butcher #P1>  (114) 
10

>  <butcher #P2>  (114) 
0

>  <butcher #P1'>  (114) 
0

>  <butcher #P2'>  (114) 
0

>  <butcher #P3>  (114) 
1

>  <butcher #P4>  (114) 
0

>  <butcher #P5>  (114) 
0

>  <butcher #P6>  (114) 
0

$$$$
EN300_110842
     RDKit          3D

 14 15  0  0  0  0  0  0  0  0999 V2000
   11.0330    9.2550   23.2330 N   0  0  0  0  0  0  0  0  0  0  0  0
    9.7410    9.3590   23.1040 N   0  0  0  0  0  0  0  0  0  0  0  0
    9.0540   10.3760   23.8350 C   0  0  0  0  0  0  0  0  0  0  0  0
    8.0480   10.0400   24.6690 N   0  0  0  0  0  0  0  0  0  0  0  0
    7.4150   11.0250   25.3140 C   0  0  0  0  0  0  0  0  0  0  0  0
    6.2670   10.6870   26.2590 C   0  0  0  0  0  0  0  0  0  0  0  0
    5.5460   11.7860   26.9810 C   0  0  0  0  0  0  0  0  0  0  0  0
    6.0410   13.1950   26.6970 C   0  0  0  0  0  0  0  0  0  0  0  0
    7.1040   13.3990   25.8150 C   0  0  0  0  0  0  0  0  0  0  0  0
    7.7850   12.3830   25.1370 C   0  0  0  0  0  0  0  0  0  0  0  0
    8.7950   12.7260   24.3150 N   0  0  0  0  0  0  0  0  0  0  0  0
    9.4310   11.7230   23.6660 C   0  0  0  0  0  0  0  0  0  0  0  0
   10.5100   12.0230   22.7880 N   0  0  0  0  0  0  0  0  0  0  0  0
   10.4840   13.2520   22.0850 N   0  0  0  0  0  0  0  0  0  0  0  0
  1  2  1  0
  2  3  1  0
  3  4  2  0
  4  5  1  0
  5  6  2  0
  6  7  1  0
  7  8  2  0
  8  9  1  0
  9 10  2  0
 10 11  1  0
 11 12  2  0
 12 13  1  0
 13 14  1  0
 12  3  1  0
 10  5  1  0
A    1
 N1 
A    2
 N2 
A    3
 C1 
A    4
 N3 
A    5
 C2 
A    6
 C3 
A    7
 C4 
A    8
 C5 
A    9
 C6 
A   10
 C7 
A   11
 N4 
A   12
 C8 
A   13
 N5 
A   14
 N6 
M  END
>  <ref_url>  (115) 
nan

>  <submitter_name>  (115) 
nan

>  <submitter_email>  (115) 
nan

>  <submitter_institution>  (115) 
nan

>  <generation_date>  (115) 
nan

>  <method>  (115) 
nan

>  <rationale>  (115) 
info info set:bb_densepocket2;hbond:S125+G127+E106+C110+T126; 

>  <experiment>  (115) 
bb_densepocket2

>  <cluster_label>  (115) 
16

>  <cluster_rank>  (115) 
8

>  <N_interactions>  (115) 
5

>  <∆∆G>  (115) 
-4.96522

>  <comRMSD>  (115) 
0.301014

>  <ROCS_TanimotoCombo>  (115) 
0.611

>  <ROCS_ShapeTanimoto>  (115) 
0.275

>  <ROCS_ColorTanimoto>  (115) 
0.336

>  <ref_pdb>  (115) 
A71x0310a

>  <ref_mols>  (115) 
A71x0446a,A71x1080a,A71x0812a,A71x0719a,A71x1140a,A71x0528a,A71x0310a

>  <original SMILES>  (115) 
NNc1nc2ccccc2nc1NN

>  <origin>  (115) 
A71-ROCS-iter2.sdf

>  <butcher #BAD>  (115) 
3

>  <butcher #GOOD>  (115) 
11

>  <butcher #protein clash>  (115) 
1

>  <butcher #solvent space>  (115) 
2

>  <butcher #pocket>  (115) 
11

>  <butcher #P1>  (115) 
11

>  <butcher #P2>  (115) 
0

>  <butcher #P1'>  (115) 
0

>  <butcher #P2'>  (115) 
0

>  <butcher #P3>  (115) 
0

>  <butcher #P4>  (115) 
0

>  <butcher #P5>  (115) 
0

>  <butcher #P6>  (115) 
0

$$$$
EN300_1718461
     RDKit          3D

 17 17  0  0  0  0  0  0  0  0999 V2000
    8.6870   11.5940   24.0620 C   0  0  0  0  0  0  0  0  0  0  0  0
    8.6630   12.8630   23.1960 C   0  0  0  0  0  0  0  0  0  0  0  0
    7.6540   13.9330   23.6660 C   0  0  0  0  0  0  0  0  0  0  0  0
    8.1620   14.0760   22.2620 C   0  0  0  0  0  0  0  0  0  0  0  0
    7.3290   14.6360   21.1150 C   0  0  0  0  0  0  0  0  0  0  0  0
    5.8650   14.3340   21.2750 C   0  0  0  0  0  0  0  0  0  0  0  0
    5.3290   14.5070   22.3420 O   0  0  0  0  0  0  0  0  0  0  0  0
    5.2830   13.9230   20.1050 N   0  0  0  0  0  0  0  0  0  0  0  0
    4.1340   13.3040   19.7120 C   0  0  0  0  0  0  0  0  0  0  0  0
    4.1040   12.2470   18.8930 N   0  0  0  0  0  0  0  0  0  0  0  0
    2.8300   11.8600   18.6110 N   0  0  0  0  0  0  0  0  0  0  0  0
    1.9850   12.6520   19.2380 C   0  0  0  0  0  0  0  0  0  0  0  0
    0.2510   12.6510   19.2130 S   0  0  0  0  0  6  0  0  0  0  0  0
   -0.2840   11.9100   17.7930 N   0  0  0  0  0  0  0  0  0  0  0  0
   -0.1780   11.8770   20.3510 O   0  0  0  0  0  0  0  0  0  0  0  0
   -0.1360   14.0300   19.0460 O   0  0  0  0  0  0  0  0  0  0  0  0
    2.6460   13.8690   20.2080 S   0  0  0  0  0  0  0  0  0  0  0  0
  1  2  3  0
  2  3  1  0
  3  4  1  0
  4  5  1  0
  5  6  1  0
  6  7  2  0
  6  8  1  0
  8  9  1  0
  9 10  2  0
 10 11  1  0
 11 12  2  0
 12 13  1  0
 13 14  1  0
 13 15  2  0
 13 16  2  0
 12 17  1  0
 17  9  1  0
A    1
 C1 
A    2
 C2 
A    3
 C3 
A    4
 C4 
A    5
 C5 
A    6
 C6 
A    7
 O1 
A    8
 N1 
A    9
 C7 
A   10
 N2 
A   11
 N3 
A   12
 C8 
A   13
 S1 
A   14
 N4 
A   15
 O2 
A   16
 O3 
A   17
 S2 
M  END
>  <ref_url>  (116) 
nan

>  <submitter_name>  (116) 
nan

>  <submitter_email>  (116) 
nan

>  <submitter_institution>  (116) 
nan

>  <generation_date>  (116) 
nan

>  <method>  (116) 
nan

>  <rationale>  (116) 
info info set:sulfonimide_whole;hbond:G127+T126+N129; 

>  <experiment>  (116) 
sulfonimide_whole

>  <cluster_label>  (116) 
17

>  <cluster_rank>  (116) 
8

>  <N_interactions>  (116) 
4

>  <∆∆G>  (116) 
-2.103297

>  <comRMSD>  (116) 
0.995377

>  <ROCS_TanimotoCombo>  (116) 
0.34

>  <ROCS_ShapeTanimoto>  (116) 
0.212

>  <ROCS_ColorTanimoto>  (116) 
0.128

>  <ref_pdb>  (116) 
A71x0310a

>  <ref_mols>  (116) 
A71x0446a,A71x1080a,A71x0812a,A71x0719a,A71x1140a,A71x0528a,A71x0310a

>  <original SMILES>  (116) 
C#CCCCC(=O)Nc1nnc(S(N)(=O)=O)s1

>  <origin>  (116) 
A71-ROCS-iter2.sdf

>  <butcher #BAD>  (116) 
2

>  <butcher #GOOD>  (116) 
15

>  <butcher #protein clash>  (116) 
2

>  <butcher #solvent space>  (116) 
0

>  <butcher #pocket>  (116) 
15

>  <butcher #P1>  (116) 
4

>  <butcher #P2>  (116) 
1

>  <butcher #P1'>  (116) 
0

>  <butcher #P2'>  (116) 
0

>  <butcher #P3>  (116) 
3

>  <butcher #P4>  (116) 
2

>  <butcher #P5>  (116) 
5

>  <butcher #P6>  (116) 
0

$$$$
Z362022872
     RDKit          3D

 17 18  0  0  0  0  0  0  0  0999 V2000
   14.1150   14.1960   25.1040 N   0  0  0  0  0  0  0  0  0  0  0  0
   13.1780   14.3910   24.1590 C   0  0  0  0  0  0  0  0  0  0  0  0
   12.2400   14.5710   23.0100 C   0  0  0  0  0  0  0  0  0  0  0  0
   12.8550   14.9870   21.8630 C   0  0  0  0  0  0  0  0  0  0  0  0
   12.1450   15.1740   20.6990 C   0  0  0  0  0  0  0  0  0  0  0  0
   10.7750   14.9620   20.6570 C   0  0  0  0  0  0  0  0  0  0  0  0
   10.1260   14.5560   21.8030 C   0  0  0  0  0  0  0  0  0  0  0  0
   10.8500   14.3610   22.9760 C   0  0  0  0  0  0  0  0  0  0  0  0
   10.0970   13.9710   24.0320 O   0  0  0  0  0  0  0  0  0  0  0  0
    9.6330   12.6960   23.9730 C   0  0  0  0  0  0  0  0  0  0  0  0
   10.3240   11.6430   23.1710 C   0  0  0  0  0  0  0  0  0  0  0  0
    9.7640   10.2690   23.2100 C   0  0  0  0  0  0  0  0  0  0  0  0
    8.6330   10.0560   23.9780 C   0  0  0  0  0  0  0  0  0  0  0  0
    8.0070   11.0770   24.6880 C   0  0  0  0  0  0  0  0  0  0  0  0
    8.4800   12.3960   24.6960 C   0  0  0  0  0  0  0  0  0  0  0  0
    7.8130   13.3930   25.4190 C   0  0  0  0  0  0  0  0  0  0  0  0
    7.0810   14.2230   24.5150 O   0  0  0  0  0  0  0  0  0  0  0  0
  1  2  3  0
  2  3  1  0
  3  4  2  0
  4  5  1  0
  5  6  2  0
  6  7  1  0
  7  8  2  0
  8  9  1  0
  9 10  1  0
 10 11  2  0
 11 12  1  0
 12 13  2  0
 13 14  1  0
 14 15  2  0
 15 16  1  0
 16 17  1  0
  8  3  1  0
 15 10  1  0
A    1
 N1 
A    2
 C1 
A    3
 C2 
A    4
 C3 
A    5
 C4 
A    6
 C5 
A    7
 C6 
A    8
 C7 
A    9
 O1 
A   10
 C8 
A   11
 C9 
A   12
 C10
A   13
 C11
A   14
 C12
A   15
 C13
A   16
 C14
A   17
 O2 
M  END
>  <ref_url>  (117) 
nan

>  <submitter_name>  (117) 
nan

>  <submitter_email>  (117) 
nan

>  <submitter_institution>  (117) 
nan

>  <generation_date>  (117) 
nan

>  <method>  (117) 
nan

>  <rationale>  (117) 
info info set:3d;hbond:E88; hydroph_interaction:P107+Y90; 

>  <experiment>  (117) 
3d

>  <cluster_label>  (117) 
8

>  <cluster_rank>  (117) 
8

>  <N_interactions>  (117) 
3

>  <∆∆G>  (117) 
-8.18183

>  <comRMSD>  (117) 
0.523517

>  <ROCS_TanimotoCombo>  (117) 
0.338

>  <ROCS_ShapeTanimoto>  (117) 
0.215

>  <ROCS_ColorTanimoto>  (117) 
0.123

>  <ref_pdb>  (117) 
A71x0310a

>  <ref_mols>  (117) 
A71x0446a,A71x1080a,A71x0812a,A71x0719a,A71x1140a,A71x0528a,A71x0310a

>  <original SMILES>  (117) 
N#Cc1ccccc1Oc1ccccc1CO

>  <origin>  (117) 
A71-ROCS-iter2.sdf

>  <butcher #BAD>  (117) 
0

>  <butcher #GOOD>  (117) 
17

>  <butcher #protein clash>  (117) 
0

>  <butcher #solvent space>  (117) 
0

>  <butcher #pocket>  (117) 
17

>  <butcher #P1>  (117) 
10

>  <butcher #P2>  (117) 
3

>  <butcher #P1'>  (117) 
4

>  <butcher #P2'>  (117) 
0

>  <butcher #P3>  (117) 
0

>  <butcher #P4>  (117) 
0

>  <butcher #P5>  (117) 
0

>  <butcher #P6>  (117) 
0

$$$$
EN300_201969
     RDKit          3D

 15 16  0  0  0  0  0  0  0  0999 V2000
   10.8580   12.1780   23.2670 C   0  0  0  0  0  0  0  0  0  0  0  0
    9.6900   11.2170   23.2220 C   0  0  0  0  0  0  0  0  0  0  0  0
   10.1220    9.8150   22.5120 C   0  0  0  0  0  0  0  0  0  0  0  0
    8.9050   10.8030   24.4870 C   0  0  0  0  0  0  0  0  0  0  0  0
    7.9130   11.9640   24.5800 C   0  0  0  0  0  0  0  0  0  0  0  0
    7.0160   12.2990   25.8100 C   0  0  0  0  0  0  0  0  0  0  0  0
    6.2210   13.4180   25.6330 C   0  0  0  0  0  0  0  0  0  0  0  0
    6.3090   14.1580   24.3240 C   0  0  0  0  0  0  0  0  0  0  0  0
    7.1580   13.7460   23.2850 C   0  0  0  0  0  0  0  0  0  0  0  0
    7.2470   14.5400   21.7680 S   0  0  0  0  0  6  0  0  0  0  0  0
    6.1750   15.8060   21.9170 N   0  0  0  0  0  0  0  0  0  0  0  0
    8.5850   14.9720   21.4390 O   0  0  0  0  0  0  0  0  0  0  0  0
    6.5380   13.6680   20.9750 O   0  0  0  0  0  0  0  0  0  0  0  0
    7.9480   12.6370   23.4470 C   0  0  0  0  0  0  0  0  0  0  0  0
    8.8060   12.0760   22.5370 O   0  0  0  0  0  0  0  0  0  0  0  0
  1  2  1  0
  2  3  1  0
  2  4  1  0
  4  5  1  0
  5  6  2  0
  6  7  1  0
  7  8  2  0
  8  9  1  0
  9 10  1  0
 10 11  1  0
 10 12  2  0
 10 13  2  0
  9 14  2  0
 14 15  1  0
 15  2  1  0
 14  5  1  0
A    1
 C1 
A    2
 C2 
A    3
 C3 
A    4
 C4 
A    5
 C5 
A    6
 C6 
A    7
 C7 
A    8
 C8 
A    9
 C9 
A   10
 S1 
A   11
 N1 
A   12
 O1 
A   13
 O2 
A   14
 C10
A   15
 O3 
M  END
>  <ref_url>  (118) 
nan

>  <submitter_name>  (118) 
nan

>  <submitter_email>  (118) 
nan

>  <submitter_institution>  (118) 
nan

>  <generation_date>  (118) 
nan

>  <method>  (118) 
nan

>  <rationale>  (118) 
info info set:sulfonimide_whole;hbond:S87+G127+A86; hydroph_interaction:P107+V124; 

>  <experiment>  (118) 
sulfonimide_whole

>  <cluster_label>  (118) 
5

>  <cluster_rank>  (118) 
8

>  <N_interactions>  (118) 
5

>  <∆∆G>  (118) 
-5.400928

>  <comRMSD>  (118) 
0.783896

>  <ROCS_TanimotoCombo>  (118) 
0.345

>  <ROCS_ShapeTanimoto>  (118) 
0.203

>  <ROCS_ColorTanimoto>  (118) 
0.143

>  <ref_pdb>  (118) 
A71x0310a

>  <ref_mols>  (118) 
A71x0446a,A71x1080a,A71x0812a,A71x0719a,A71x1140a,A71x0528a,A71x0310a

>  <original SMILES>  (118) 
CC1(C)Cc2cccc(S(N)(=O)=O)c2O1

>  <origin>  (118) 
A71-ROCS-iter2.sdf

>  <butcher #BAD>  (118) 
2

>  <butcher #GOOD>  (118) 
13

>  <butcher #protein clash>  (118) 
2

>  <butcher #solvent space>  (118) 
0

>  <butcher #pocket>  (118) 
13

>  <butcher #P1>  (118) 
10

>  <butcher #P2>  (118) 
2

>  <butcher #P1'>  (118) 
0

>  <butcher #P2'>  (118) 
0

>  <butcher #P3>  (118) 
1

>  <butcher #P4>  (118) 
0

>  <butcher #P5>  (118) 
0

>  <butcher #P6>  (118) 
0

$$$$
Z1645594352
     RDKit          3D

 19 20  0  0  0  0  0  0  0  0999 V2000
   10.4920   15.6430   20.4950 C   0  0  0  0  0  0  0  0  0  0  0  0
   11.5130   15.6610   21.6480 C   0  0  0  0  0  0  0  0  0  0  0  0
   12.1350   16.7600   22.2440 N   0  0  0  0  0  0  0  0  0  0  0  0
   12.9240   16.1080   23.1950 O   0  0  0  0  0  0  0  0  0  0  0  0
   12.8260   14.7780   23.2230 C   0  0  0  0  0  0  0  0  0  0  0  0
   13.6940   14.0790   24.2630 C   0  0  0  0  0  0  0  0  0  0  0  0
   11.9610   14.4270   22.2870 C   0  0  0  0  0  0  0  0  0  0  0  0
   11.4850   13.2240   21.8570 C   0  0  0  0  0  0  0  0  0  0  0  0
   10.5900   12.4300   22.7820 C   0  0  0  0  0  0  0  0  0  0  0  0
   10.2570   11.3180   22.4000 O   0  0  0  0  0  0  0  0  0  0  0  0
   10.1860   12.9560   23.9140 N   0  0  0  0  0  0  0  0  0  0  0  0
    9.1350   12.3650   24.4480 C   0  0  0  0  0  0  0  0  0  0  0  0
    8.1570   13.2120   25.2890 C   0  0  0  0  0  0  0  0  0  0  0  0
    6.9570   12.5230   25.9350 C   0  0  0  0  0  0  0  0  0  0  0  0
    6.8850   11.0300   25.6520 C   0  0  0  0  0  0  0  0  0  0  0  0
    5.8150   10.2890   26.2100 O   0  0  0  0  0  0  0  0  0  0  0  0
    7.9200   10.3280   24.7910 C   0  0  0  0  0  0  0  0  0  0  0  0
    8.9760   10.9870   24.2260 C   0  0  0  0  0  0  0  0  0  0  0  0
    9.8320   10.2740   23.4780 F   0  0  0  0  0  0  0  0  0  0  0  0
  1  2  1  0
  2  3  2  0
  3  4  1  0
  4  5  1  0
  5  6  1  0
  5  7  2  0
  7  8  1  0
  8  9  1  0
  9 10  2  0
  9 11  1  0
 11 12  1  0
 12 13  2  0
 13 14  1  0
 14 15  2  0
 15 16  1  0
 15 17  1  0
 17 18  2  0
 18 19  1  0
  7  2  1  0
 18 12  1  0
A    1
 C1 
A    2
 C2 
A    3
 N1 
A    4
 O1 
A    5
 C3 
A    6
 C4 
A    7
 C5 
A    8
 C6 
A    9
 C7 
A   10
 O2 
A   11
 N2 
A   12
 C8 
A   13
 C9 
A   14
 C10
A   15
 C11
A   16
 O3 
A   17
 C12
A   18
 C13
A   19
 F1 
M  END
>  <ref_url>  (119) 
nan

>  <submitter_name>  (119) 
nan

>  <submitter_email>  (119) 
nan

>  <submitter_institution>  (119) 
nan

>  <generation_date>  (119) 
nan

>  <method>  (119) 
nan

>  <rationale>  (119) 
info info set:screening_pocket;halogenbond:C110; hbond:S105+Y90; hydroph_interaction:P107+Y89+Y90; 

>  <experiment>  (119) 
screening_pocket

>  <cluster_label>  (119) 
2

>  <cluster_rank>  (119) 
8

>  <N_interactions>  (119) 
7

>  <∆∆G>  (119) 
-0.298212

>  <comRMSD>  (119) 
0.965398

>  <ROCS_TanimotoCombo>  (119) 
0.623

>  <ROCS_ShapeTanimoto>  (119) 
0.236

>  <ROCS_ColorTanimoto>  (119) 
0.387

>  <ref_pdb>  (119) 
A71x0310a

>  <ref_mols>  (119) 
A71x0446a,A71x1080a,A71x0812a,A71x0719a,A71x1140a,A71x0528a,A71x0310a

>  <original SMILES>  (119) 
Cc1noc(C)c1CC(=O)Nc1ccc(O)cc1F

>  <origin>  (119) 
A71-ROCS-iter2.sdf

>  <butcher #BAD>  (119) 
1

>  <butcher #GOOD>  (119) 
18

>  <butcher #protein clash>  (119) 
1

>  <butcher #solvent space>  (119) 
0

>  <butcher #pocket>  (119) 
18

>  <butcher #P1>  (119) 
12

>  <butcher #P2>  (119) 
2

>  <butcher #P1'>  (119) 
4

>  <butcher #P2'>  (119) 
0

>  <butcher #P3>  (119) 
0

>  <butcher #P4>  (119) 
0

>  <butcher #P5>  (119) 
0

>  <butcher #P6>  (119) 
0

$$$$
EN300_787748
     RDKit          3D

 22 24  0  0  0  0  0  0  0  0999 V2000
    6.2640   16.4140   25.1710 C   0  0  0  0  0  0  0  0  0  0  0  0
    5.9560   14.9590   25.1340 C   0  0  0  0  0  0  0  0  0  0  0  0
    5.7360   14.4020   26.5310 C   0  0  0  0  0  0  0  0  0  0  0  0
    4.6930   14.7730   24.2900 C   0  0  0  0  0  0  0  0  0  0  0  0
    6.9890   14.2520   24.4400 O   0  0  0  0  0  0  0  0  0  0  0  0
    6.9120   12.9320   24.5480 C   0  0  0  0  0  0  0  0  0  0  0  0
    6.2000   12.3740   25.3750 O   0  0  0  0  0  0  0  0  0  0  0  0
    7.6870   12.2630   23.6580 N   0  0  0  0  0  0  0  0  0  0  0  0
    8.0100   11.1010   24.2110 C   0  0  1  0  0  0  0  0  0  0  0  0
    9.1580   10.2920   23.6050 C   0  0  0  0  0  0  0  0  0  0  0  0
    9.7720   11.4940   22.9680 C   0  0  0  0  0  0  0  0  0  0  0  0
    9.0270   12.6720   23.2150 C   0  0  1  0  0  0  0  0  0  0  0  0
    9.2570   13.8060   22.2170 C   0  0  0  0  0  0  0  0  0  0  0  0
    8.2930   14.2790   21.3750 N   0  0  0  0  0  0  0  0  0  0  0  0
    8.7570   15.2510   20.6020 N   0  0  0  0  0  0  0  0  0  0  0  0
   10.0230   15.4500   20.9120 N   0  0  0  0  0  0  0  0  0  0  0  0
   10.3630   14.5830   21.9170 C   0  0  0  0  0  0  0  0  0  0  0  0
   11.6940   14.5720   22.5110 C   0  0  0  0  0  0  0  0  0  0  0  0
   12.3350   13.6010   22.8860 O   0  0  0  0  0  0  0  0  0  0  0  0
   12.2190   15.8210   22.6540 O   0  0  0  0  0  0  0  0  0  0  0  0
    9.4080   13.0390   24.5920 C   0  0  0  0  0  0  0  0  0  0  0  0
    8.6720   11.8600   25.2630 C   0  0  0  0  0  0  0  0  0  0  0  0
  1  2  1  0
  2  3  1  0
  2  4  1  0
  2  5  1  0
  5  6  1  0
  6  7  2  0
  6  8  1  0
  8  9  1  0
  9 10  1  6
 10 11  1  0
 11 12  1  0
 12 13  1  6
 13 14  1  0
 14 15  1  0
 15 16  2  0
 16 17  1  0
 17 18  1  0
 18 19  2  0
 18 20  1  0
 12 21  1  0
 21 22  1  0
 12  8  1  0
 17 13  2  0
 22  9  1  0
A    1
 C1 
A    2
 C2 
A    3
 C3 
A    4
 C4 
A    5
 O1 
A    6
 C5 
A    7
 O2 
A    8
 N1 
A    9
 C6 
A   10
 C7 
A   11
 C8 
A   12
 C9 
A   13
 C10
A   14
 N2 
A   15
 N3 
A   16
 N4 
A   17
 C11
A   18
 C12
A   19
 O3 
A   20
 O4 
A   21
 C13
A   22
 C14
M  END
>  <ref_url>  (120) 
nan

>  <submitter_name>  (120) 
nan

>  <submitter_email>  (120) 
nan

>  <submitter_institution>  (120) 
nan

>  <generation_date>  (120) 
nan

>  <method>  (120) 
nan

>  <rationale>  (120) 
info info set:bb_whole;hbond:S87+S125+G127; hydroph_interaction:P107; saltbridge:H21; 

>  <experiment>  (120) 
bb_whole

>  <cluster_label>  (120) 
9

>  <cluster_rank>  (120) 
8

>  <N_interactions>  (120) 
5

>  <∆∆G>  (120) 
-0.710274

>  <comRMSD>  (120) 
0.59466

>  <ROCS_TanimotoCombo>  (120) 
0.448

>  <ROCS_ShapeTanimoto>  (120) 
0.258

>  <ROCS_ColorTanimoto>  (120) 
0.19

>  <ref_pdb>  (120) 
A71x0310a

>  <ref_mols>  (120) 
A71x0446a,A71x1080a,A71x0812a,A71x0719a,A71x1140a,A71x0528a,A71x0310a

>  <original SMILES>  (120) 
CC(C)(C)OC(=O)N1[C@H]2CC[C@]1(c1[nH]nnc1C(=O)O)CC2

>  <origin>  (120) 
A71-ROCS-iter2.sdf

>  <butcher #BAD>  (120) 
1

>  <butcher #GOOD>  (120) 
21

>  <butcher #protein clash>  (120) 
0

>  <butcher #solvent space>  (120) 
1

>  <butcher #pocket>  (120) 
21

>  <butcher #P1>  (120) 
13

>  <butcher #P2>  (120) 
3

>  <butcher #P1'>  (120) 
2

>  <butcher #P2'>  (120) 
0

>  <butcher #P3>  (120) 
3

>  <butcher #P4>  (120) 
0

>  <butcher #P5>  (120) 
0

>  <butcher #P6>  (120) 
0

$$$$
EN300_37397014
     RDKit          3D

 17 17  0  0  0  0  0  0  0  0999 V2000
   11.0540    8.6920   23.0460 C   0  0  0  0  0  0  0  0  0  0  0  0
   10.2810    9.8010   22.4100 C   0  0  0  0  0  0  0  0  0  0  0  0
    9.3850   10.5340   23.3990 C   0  0  0  0  0  0  0  0  0  0  0  0
    8.5490    9.7530   24.2320 N   0  0  0  0  0  0  0  0  0  0  0  0
    7.7470   10.4650   25.0680 C   0  0  0  0  0  0  0  0  0  0  0  0
    7.6130   12.0450   25.2500 C   0  0  0  0  0  0  0  0  0  0  0  0
    6.7500   12.6230   26.1330 F   0  0  0  0  0  0  0  0  0  0  0  0
    8.5220   12.6000   24.3550 C   0  0  0  0  0  0  0  0  0  0  0  0
    9.3630   11.8980   23.4790 C   0  0  0  0  0  0  0  0  0  0  0  0
   10.2210   12.5970   22.6410 N   0  0  0  0  0  0  0  0  0  0  0  0
   10.5030   13.8740   22.7940 C   0  0  0  0  0  0  0  0  0  0  0  0
   10.3020   14.5240   23.7910 O   0  0  0  0  0  0  0  0  0  0  0  0
   11.0440   14.3130   21.6590 O   0  0  0  0  0  0  0  0  0  0  0  0
   12.3040   14.8940   21.8730 C   0  0  0  0  0  0  0  0  0  0  0  0
   12.2180   16.4060   21.7040 C   0  0  0  0  0  0  0  0  0  0  0  0
   13.0970   14.3590   20.6960 C   0  0  0  0  0  0  0  0  0  0  0  0
   12.9200   14.4840   23.2210 C   0  0  0  0  0  0  0  0  0  0  0  0
  1  2  3  0
  2  3  1  0
  3  4  2  0
  4  5  1  0
  5  6  2  0
  6  7  1  0
  6  8  1  0
  8  9  2  0
  9 10  1  0
 10 11  1  0
 11 12  2  0
 11 13  1  0
 13 14  1  0
 14 15  1  0
 14 16  1  0
 14 17  1  0
  9  3  1  0
A    1
 C1 
A    2
 C2 
A    3
 C3 
A    4
 N1 
A    5
 C4 
A    6
 C5 
A    7
 F1 
A    8
 C6 
A    9
 C7 
A   10
 N2 
A   11
 C8 
A   12
 O1 
A   13
 O2 
A   14
 C9 
A   15
 C10
A   16
 C11
A   17
 C12
M  END
>  <ref_url>  (121) 
nan

>  <submitter_name>  (121) 
nan

>  <submitter_email>  (121) 
nan

>  <submitter_institution>  (121) 
nan

>  <generation_date>  (121) 
nan

>  <method>  (121) 
nan

>  <rationale>  (121) 
info info set:bb_densepocket2;hbond:S87+S125+G127; hydroph_interaction:P107+Y89+Y90+V124+D109; 

>  <experiment>  (121) 
bb_densepocket2

>  <cluster_label>  (121) 
3

>  <cluster_rank>  (121) 
8

>  <N_interactions>  (121) 
9

>  <∆∆G>  (121) 
-8.26319

>  <comRMSD>  (121) 
0.538209

>  <ROCS_TanimotoCombo>  (121) 
0.609

>  <ROCS_ShapeTanimoto>  (121) 
0.25

>  <ROCS_ColorTanimoto>  (121) 
0.359

>  <ref_pdb>  (121) 
A71x0310a

>  <ref_mols>  (121) 
A71x0446a,A71x1080a,A71x0812a,A71x0719a,A71x1140a,A71x0528a,A71x0310a

>  <original SMILES>  (121) 
C#Cc1ncc(F)cc1NC(=O)OC(C)(C)C

>  <origin>  (121) 
A71-ROCS-iter2.sdf

>  <butcher #BAD>  (121) 
2

>  <butcher #GOOD>  (121) 
15

>  <butcher #protein clash>  (121) 
2

>  <butcher #solvent space>  (121) 
0

>  <butcher #pocket>  (121) 
15

>  <butcher #P1>  (121) 
12

>  <butcher #P2>  (121) 
1

>  <butcher #P1'>  (121) 
2

>  <butcher #P2'>  (121) 
0

>  <butcher #P3>  (121) 
0

>  <butcher #P4>  (121) 
0

>  <butcher #P5>  (121) 
0

>  <butcher #P6>  (121) 
0

$$$$
