x0554_original_1A
     RDKit          3D

 13 14  0  0  0  0  0  0  0  0999 V2000
   10.8100   12.6900   22.6000 N   0  0  0  0  0  0  0  0  0  0  0  0
   12.2510   14.5700   22.1100 C   0  0  0  0  0  0  0  0  0  0  0  0
   11.3730   14.0990   24.2780 O   0  0  0  0  0  0  0  0  0  0  0  0
   11.4350   13.7860   23.1010 C   0  0  0  0  0  0  0  0  0  0  0  0
    8.6140   13.4010   24.6510 N   0  0  0  0  0  0  0  0  0  0  0  0
    9.9580   11.7820   23.2590 C   0  0  0  0  0  0  0  0  0  0  0  0
   10.0660   10.4290   22.9530 C   0  0  0  0  0  0  0  0  0  0  0  0
    9.2240    9.4950   23.5220 C   0  0  0  0  0  0  0  0  0  0  0  0
    8.2330    9.8750   24.4060 C   0  0  0  0  0  0  0  0  0  0  0  0
    8.1020   11.2150   24.7710 C   0  0  0  0  0  0  0  0  0  0  0  0
    7.2140   11.9480   25.6170 C   0  0  0  0  0  0  0  0  0  0  0  0
    7.5510   13.2570   25.5090 C   0  0  0  0  0  0  0  0  0  0  0  0
    8.9710   12.1610   24.1830 C   0  0  0  0  0  0  0  0  0  0  0  0
  4  1  1  0
  4  3  1  0
  4  2  1  0
  6  1  1  0
  7  6  1  0
  8  7  1  0
  9  8  1  0
 10  9  1  0
 11 10  1  0
 12 11  1  0
 12  5  1  0
 13 10  1  0
 13  6  1  0
 13  5  1  0
M  END
>  <ref_pdb>  (1) 
x0554_original.pdb

>  <pockets>  (1) 
P1', P1

$$$$
x0554_1A
     RDKit          3D

 13 14  0  0  0  0  0  0  0  0999 V2000
   12.1370   12.7140   21.6730 N   0  0  0  0  0  0  0  0  0  0  0  0
   13.5110   14.6130   21.0750 C   0  0  0  0  0  0  0  0  0  0  0  0
   12.7960   14.1400   23.3010 O   0  0  0  0  0  0  0  0  0  0  0  0
   12.7790   13.8220   22.1240 C   0  0  0  0  0  0  0  0  0  0  0  0
   10.0810   13.4020   23.8720 N   0  0  0  0  0  0  0  0  0  0  0  0
   11.3480   11.7970   22.3940 C   0  0  0  0  0  0  0  0  0  0  0  0
   11.4550   10.4440   22.0860 C   0  0  0  0  0  0  0  0  0  0  0  0
   10.6700    9.5000   22.7170 C   0  0  0  0  0  0  0  0  0  0  0  0
    9.7380    9.8700   23.6680 C   0  0  0  0  0  0  0  0  0  0  0  0
    9.6130   11.2090   24.0360 C   0  0  0  0  0  0  0  0  0  0  0  0
    8.7760   11.9330   24.9400 C   0  0  0  0  0  0  0  0  0  0  0  0
    9.0840   13.2460   24.8030 C   0  0  0  0  0  0  0  0  0  0  0  0
   10.4230   12.1650   23.3840 C   0  0  0  0  0  0  0  0  0  0  0  0
  4  2  1  0
  4  1  1  0
  4  3  1  0
  6  1  1  0
  7  6  1  0
  8  7  1  0
  9  8  1  0
 10  9  1  0
 11 10  1  0
 12 11  1  0
 12  5  1  0
 13 10  1  0
 13  5  1  0
 13  6  1  0
M  END
>  <ref_pdb>  (2) 
x0554.pdb

>  <pockets>  (2) 
P1', P1

$$$$
x0812_0A
     RDKit          3D

 13 14  0  0  0  0  0  0  0  0999 V2000
    9.0370   10.4010   22.4850 N   0  0  0  0  0  0  0  0  0  0  0  0
    9.2200    9.0040   22.1210 C   0  0  0  0  0  0  0  0  0  0  0  0
    9.5250   14.8810   22.3200 O   0  0  0  0  0  0  0  0  0  0  0  0
    9.4500   12.5200   22.4800 C   0  0  0  0  0  0  0  0  0  0  0  0
    9.8820   11.3600   21.9820 N   0  0  0  0  0  0  0  0  0  0  0  0
   10.1080   13.8040   22.1300 C   0  0  0  0  0  0  0  0  0  0  0  0
   11.3280   13.7310   21.6120 N   0  0  0  0  0  0  0  0  0  0  0  0
    8.3100   12.3170   23.3350 C   0  0  0  0  0  0  0  0  0  0  0  0
    7.4850   13.1160   24.1250 C   0  0  0  0  0  0  0  0  0  0  0  0
    6.4680   12.5250   24.8660 C   0  0  0  0  0  0  0  0  0  0  0  0
    6.2660   11.1570   24.8270 C   0  0  0  0  0  0  0  0  0  0  0  0
    7.0700   10.3440   24.0410 C   0  0  0  0  0  0  0  0  0  0  0  0
    8.0880   10.9370   23.3040 C   0  0  0  0  0  0  0  0  0  0  0  0
  2  1  1  0
  5  1  1  0
  5  4  1  0
  6  4  1  0
  6  3  1  0
  7  6  1  0
  8  4  1  0
  9  8  1  0
 10  9  1  0
 11 10  1  0
 12 11  1  0
 13 12  1  0
 13  1  1  0
 13  8  1  0
M  END
>  <ref_pdb>  (3) 
x0812.pdb

>  <pockets>  (3) 
P1

$$$$
x0351_1A
     RDKit          3D

 16 17  0  0  0  0  0  0  0  0999 V2000
    8.2650   15.2010   26.2630 N   0  0  0  0  0  0  0  0  0  0  0  0
    5.3820   15.2090   28.5060 C   0  0  0  0  0  0  0  0  0  0  0  0
    7.5680   16.9090   27.9200 O   0  0  0  0  0  0  0  0  0  0  0  0
    6.7250   14.5100   28.4900 C   0  0  0  0  0  0  0  0  0  0  0  0
    9.2250   15.1810   28.5440 O   0  0  0  0  0  0  0  0  0  0  0  0
    7.3350   14.4360   25.4220 C   0  0  0  0  0  0  0  0  0  0  0  0
    9.2330    9.3510   23.9280 O   0  0  0  0  0  0  0  0  0  0  0  0
    7.8600   13.0540   25.1120 C   0  0  0  0  0  0  0  0  0  0  0  0
   10.2730   11.1960   22.9970 O   0  0  0  0  0  0  0  0  0  0  0  0
    7.2760   11.9320   25.6990 C   0  0  0  0  0  0  0  0  0  0  0  0
    7.6910   10.6480   25.3830 C   0  0  0  0  0  0  0  0  0  0  0  0
    8.7020   10.5070   24.4550 C   0  0  0  0  0  0  0  0  0  0  0  0
   10.3320    9.7730   23.1190 C   0  0  0  0  0  0  0  0  0  0  0  0
    9.2970   11.5990   23.8820 C   0  0  0  0  0  0  0  0  0  0  0  0
    8.8970   12.8800   24.1970 C   0  0  0  0  0  0  0  0  0  0  0  0
    8.0240   15.5520   27.8570 S   0  0  1  0  0  0  0  0  0  0  0  0
  4  2  1  0
  6  1  1  0
  8  6  1  0
 10  8  1  0
 11 10  1  0
 12 11  1  0
 12  7  1  0
 13  7  1  0
 13  9  1  0
 14 12  1  0
 14  9  1  0
 15 14  1  0
 15  8  1  0
 16  1  1  0
 16  5  1  1
 16  4  1  0
 16  3  1  0
M  END
>  <ref_pdb>  (4) 
x0351.pdb

>  <pockets>  (4) 
P1

$$$$
x0911_0A
     RDKit          3D

 15 16  0  0  0  0  0  0  0  0999 V2000
    1.1380   13.4280   20.3900 N   0  0  0  0  0  0  0  0  0  0  0  0
    0.6810   13.4290   21.7740 C   0  0  0  0  0  0  0  0  0  0  0  0
   -0.4770   14.8570   19.7480 O   0  0  0  0  0  0  0  0  0  0  0  0
    0.4740   14.1500   19.4580 C   0  0  0  0  0  0  0  0  0  0  0  0
    0.2590   14.2380   15.7510 N   0  0  0  0  0  0  0  0  0  0  0  0
    0.9600   14.0090   18.0400 C   0  0  1  0  0  0  0  0  0  0  0  0
    0.5970   12.6280   17.4730 C   0  0  0  0  0  0  0  0  0  0  0  0
    0.6330   12.8230   15.9630 C   0  0  0  0  0  0  0  0  0  0  0  0
    0.3300   14.9570   17.0660 C   0  0  0  0  0  0  0  0  0  0  0  0
    2.2800   12.6260   20.0740 C   0  0  1  0  0  0  0  0  0  0  0  0
    2.2030   11.2460   20.1720 C   0  0  0  0  0  0  0  0  0  0  0  0
    3.2080   10.4620   19.6300 C   0  0  0  0  0  0  0  0  0  0  0  0
    4.2770   11.0420   18.9910 C   0  0  0  0  0  0  0  0  0  0  0  0
    4.3700   12.4140   18.9140 C   0  0  0  0  0  0  0  0  0  0  0  0
    3.3900   13.2120   19.4740 C   0  0  0  0  0  0  0  0  0  0  0  0
  2  1  1  0
  4  3  1  0
  4  1  1  0
  6  4  1  1
  7  6  1  0
  8  5  1  0
  8  7  1  0
  9  5  1  0
  9  6  1  0
 10  1  1  6
 11 10  1  0
 12 11  1  0
 13 12  1  0
 14 13  1  0
 15 14  1  0
 15 10  1  0
M  END
>  <ref_pdb>  (5) 
x0911.pdb

>  <pockets>  (5) 
P4, P3, P6, P5

$$$$
x0732_0A
     RDKit          3D

 14 14  0  0  0  0  0  0  0  0999 V2000
    7.5320   13.8000   24.0990 N   0  0  0  0  0  0  0  0  0  0  0  0
   10.6570    9.0910   23.3150 C   0  0  0  0  0  0  0  0  0  0  0  0
    6.2710   13.3250   22.2470 O   0  0  0  0  0  0  0  0  0  0  0  0
    9.9050   10.3620   23.6160 C   0  0  0  0  0  0  0  0  0  0  0  0
    6.8180   16.4970   23.0680 O   0  0  0  0  0  0  0  0  0  0  0  0
    8.8120   10.3590   24.4710 C   0  0  0  0  0  0  0  0  0  0  0  0
    8.0470   11.4990   24.6980 C   0  0  0  0  0  0  0  0  0  0  0  0
    6.9040   11.4600   25.6790 C   0  0  0  0  0  0  0  0  0  0  0  0
    8.3960   12.6720   24.0220 C   0  0  1  0  0  0  0  0  0  0  0  0
    6.5920   14.0830   23.1680 C   0  0  0  0  0  0  0  0  0  0  0  0
    5.9180   15.4290   23.3110 C   0  0  0  0  0  0  0  0  0  0  0  0
    9.5160   12.7240   23.1880 C   0  0  0  0  0  0  0  0  0  0  0  0
    9.9380   13.9960   22.4990 C   0  0  0  0  0  0  0  0  0  0  0  0
   10.2510   11.5570   23.0050 C   0  0  0  0  0  0  0  0  0  0  0  0
  4  2  1  0
  6  4  1  0
  7  6  1  0
  8  7  1  0
  9  7  1  0
  9  1  1  6
 10  3  1  0
 10  1  1  0
 11 10  1  0
 11  5  1  0
 12  9  1  0
 13 12  1  0
 14  4  1  0
 14 12  1  0
M  END
>  <ref_pdb>  (6) 
x0732.pdb

>  <pockets>  (6) 
P1, P3

$$$$
x0929_0A
     RDKit          3D

 13 13  0  0  0  0  0  0  0  0999 V2000
    2.5450   12.5230   19.2970 N   0  0  0  0  0  0  0  0  0  0  0  0
    2.8350   14.0860   21.2230 C   0  0  0  0  0  0  0  0  0  0  0  0
    3.3940   14.2290   22.5190 O   0  0  0  0  0  0  0  0  0  0  0  0
    2.9040   12.6480   20.7390 C   0  0  2  0  0  0  0  0  0  0  0  0
    0.5150   13.8970   19.6360 O   0  0  0  0  0  0  0  0  0  0  0  0
    0.0720   11.4000   19.1190 C   0  0  0  0  0  0  0  0  0  0  0  0
    1.0670   13.0500   17.3920 O   0  0  0  0  0  0  0  0  0  0  0  0
    3.3230   11.5860   18.4370 C   0  0  1  0  0  0  0  0  0  0  0  0
    4.4730   12.2660   17.7210 C   0  0  0  0  0  0  0  0  0  0  0  0
    3.7350   10.3140   19.1790 C   0  0  0  0  0  0  0  0  0  0  0  0
    4.2920   10.5880   20.5710 C   0  0  0  0  0  0  0  0  0  0  0  0
    4.2860   12.0580   20.9600 C   0  0  0  0  0  0  0  0  0  0  0  0
    1.0080   12.8460   18.8050 S   0  0  2  0  0  0  0  0  0  0  0  0
  3  2  1  0
  4  2  1  6
  4  1  1  0
  8  1  1  0
  8  9  1  1
 10  8  1  0
 11 10  1  0
 12 11  1  0
 12  4  1  0
 13  7  1  0
 13  6  1  6
 13  5  1  0
 13  1  1  0
M  END
>  <ref_pdb>  (7) 
x0929.pdb

>  <pockets>  (7) 
P4, P3, P6, P5

$$$$
x1148_1A
     RDKit          3D

  6  6  0  0  0  0  0  0  0  0999 V2000
    7.7170   11.7610   25.6960 N   0  0  0  0  0  0  0  0  0  0  0  0
    9.1210   10.8070   24.2930 C   0  0  0  0  0  0  0  0  0  0  0  0
    8.0440   10.5580   25.1380 C   0  0  0  0  0  0  0  0  0  0  0  0
    9.4300   12.1350   24.3520 N   0  0  0  0  0  0  0  0  0  0  0  0
    8.5640   12.6720   25.2010 C   0  0  0  0  0  0  0  0  0  0  0  0
   10.0330    9.5620   23.2260 Br  0  0  0  0  0  0  0  0  0  0  0  0
  3  2  1  0
  3  1  1  0
  4  2  1  0
  5  4  1  0
  5  1  1  0
  6  2  1  0
M  END
>  <ref_pdb>  (8) 
x1148.pdb

>  <pockets>  (8) 
P1

$$$$
x0450_1A
     RDKit          3D

 13 13  0  0  0  0  0  0  0  0999 V2000
    5.8350   13.4060   26.5290 N   0  0  0  0  0  0  0  0  0  0  0  0
    5.4530   13.7550   25.1600 C   0  0  0  0  0  0  0  0  0  0  0  0
    7.1440   12.3970   28.0510 O   0  0  0  0  0  0  0  0  0  0  0  0
    5.0140   14.0460   27.5590 C   0  0  0  0  0  0  0  0  0  0  0  0
    6.8500   12.6020   26.8860 C   0  0  0  0  0  0  0  0  0  0  0  0
    7.6740   11.9420   25.8150 C   0  0  2  0  0  0  0  0  0  0  0  0
    7.6190   10.5590   25.6690 C   0  0  0  0  0  0  0  0  0  0  0  0
    8.4610    9.8950   24.7930 C   0  0  0  0  0  0  0  0  0  0  0  0
    9.3580   10.6280   24.0750 C   0  0  0  0  0  0  0  0  0  0  0  0
    9.4390   11.9970   24.1520 C   0  0  0  0  0  0  0  0  0  0  0  0
    8.5770   12.6460   25.0220 C   0  0  1  0  0  0  0  0  0  0  0  0
    8.6090   14.5400   25.0620 Br  0  0  0  0  0  0  0  0  0  0  0  0
   10.2370    9.9690   23.2720 F   0  0  0  0  0  0  0  0  0  0  0  0
  2  1  1  0
  4  1  1  0
  5  1  1  0
  5  3  1  0
  6  5  1  1
  7  6  1  0
  8  7  1  0
  9  8  1  0
 10  9  1  0
 11 10  1  0
 11  6  1  0
 11 12  1  6
 13  9  1  0
M  END
>  <ref_pdb>  (9) 
x0450.pdb

>  <pockets>  (9) 
P1, P3

$$$$
x0875_1A
     RDKit          3D

 14 14  0  0  0  0  0  0  0  0999 V2000
   11.0790   12.9570   24.6950 N   0  0  0  0  0  0  0  0  0  0  0  0
    8.2650   11.4210   25.2950 C   0  0  0  0  0  0  0  0  0  0  0  0
    9.6800   14.8270   23.9220 O   0  0  0  0  0  0  0  0  0  0  0  0
    8.3950   12.5890   24.3510 C   0  0  0  0  0  0  0  0  0  0  0  0
    9.4980   14.0310   26.2410 O   0  0  0  0  0  0  0  0  0  0  0  0
   11.9420   13.0750   25.8810 C   0  0  0  0  0  0  0  0  0  0  0  0
   15.8900   11.9150   23.9110 O   0  0  0  0  0  0  0  0  0  0  0  0
   13.3990   12.9080   25.5200 C   0  0  0  0  0  0  0  0  0  0  0  0
   15.0080   10.3120   25.1520 O   0  0  0  0  0  0  0  0  0  0  0  0
   13.5780   11.9930   24.3210 C   0  0  2  0  0  0  0  0  0  0  0  0
   12.4800   10.9420   24.3020 C   0  0  0  0  0  0  0  0  0  0  0  0
   11.1540   11.6320   24.0450 C   0  0  0  0  0  0  0  0  0  0  0  0
   14.9480   11.3870   24.4180 C   0  0  1  0  0  0  0  0  0  0  0  0
    9.6600   13.7420   24.8530 S   0  0  1  0  0  0  0  0  0  0  0  0
  4  2  1  0
  6  1  1  0
  8  6  1  0
 10  8  1  1
 11 10  1  0
 12 11  1  0
 12  1  1  0
 13  9  1  1
 13 10  1  0
 13  7  1  0
 14  5  1  1
 14  4  1  0
 14  3  1  0
 14  1  1  0
M  END
>  <ref_pdb>  (10) 
x0875.pdb

>  <pockets>  (10) 
P1

$$$$
x0719_1A
     RDKit          3D

 13 13  0  0  0  0  0  0  0  0999 V2000
    6.3890   15.5180   21.5260 N   0  0  0  0  0  0  0  0  0  0  0  0
    8.0380   14.6490   26.2050 C   0  0  0  0  0  0  0  0  0  0  0  0
    8.8500   15.5700   21.7300 O   0  0  0  0  0  0  0  0  0  0  0  0
    8.4870   14.4270   24.7630 C   0  0  2  0  0  0  0  0  0  0  0  0
    7.6410   13.4070   21.7800 O   0  0  0  0  0  0  0  0  0  0  0  0
    7.4000   14.9760   23.8220 C   0  0  0  0  0  0  0  0  0  0  0  0
    8.8900   12.9780   24.5040 C   0  0  0  0  0  0  0  0  0  0  0  0
    8.2030   11.9280   25.0950 C   0  0  0  0  0  0  0  0  0  0  0  0
    8.5540   10.6160   24.8400 C   0  0  0  0  0  0  0  0  0  0  0  0
    9.5760   10.3280   23.9630 C   0  0  0  0  0  0  0  0  0  0  0  0
   10.2620   11.3570   23.3570 C   0  0  0  0  0  0  0  0  0  0  0  0
    9.9360   12.6760   23.6430 C   0  0  0  0  0  0  0  0  0  0  0  0
    7.7040   14.7990   22.0850 S   0  0  2  0  0  0  0  0  0  0  0  0
  4  2  1  1
  6  4  1  0
  7  4  1  0
  8  7  1  0
  9  8  1  0
 10  9  1  0
 11 10  1  0
 12 11  1  0
 12  7  1  0
 13  5  1  0
 13  3  1  0
 13  1  1  6
 13  6  1  0
M  END
>  <ref_pdb>  (11) 
x0719.pdb

>  <pockets>  (11) 
P1, P3

$$$$
x0446_0A
     RDKit          3D

 10 10  0  0  0  0  0  0  0  0999 V2000
    8.8400    9.7970   23.4890 N   0  0  0  0  0  0  0  0  0  0  0  0
   10.0460    9.5220   22.7280 C   0  0  0  0  0  0  0  0  0  0  0  0
    9.6800   11.5790   24.5690 O   0  0  0  0  0  0  0  0  0  0  0  0
    8.7320   10.8550   24.2830 C   0  0  0  0  0  0  0  0  0  0  0  0
    5.2690   11.0330   25.7880 N   0  0  0  0  0  0  0  0  0  0  0  0
    7.3990   11.1270   24.8520 C   0  0  1  0  0  0  0  0  0  0  0  0
    6.3030   10.3850   25.1530 C   0  0  0  0  0  0  0  0  0  0  0  0
    5.5710   12.2860   25.9710 C   0  0  0  0  0  0  0  0  0  0  0  0
    4.6800   13.2540   26.6730 C   0  0  0  0  0  0  0  0  0  0  0  0
    7.1290   12.7590   25.3700 S   0  0  0  0  0  0  0  0  0  0  0  0
  2  1  1  0
  4  1  1  0
  4  3  1  0
  6  4  1  1
  7  5  1  0
  7  6  1  0
  8  5  1  0
  9  8  1  0
 10  8  1  0
 10  6  1  0
M  END
>  <ref_pdb>  (12) 
x0446.pdb

>  <pockets>  (12) 
P1

$$$$
x0853_0A
     RDKit          3D

 15 17  0  0  0  0  0  0  0  0999 V2000
    1.4120   13.6260   21.9360 N   0  0  0  0  0  0  0  0  0  0  0  0
    0.5150   12.8260   21.3510 C   0  0  0  0  0  0  0  0  0  0  0  0
   -0.1020   11.9680   21.9690 O   0  0  0  0  0  0  0  0  0  0  0  0
    1.1260   15.0270   22.2270 C   0  0  1  0  0  0  0  0  0  0  0  0
    0.0560   13.5620   15.8280 O   0  0  0  0  0  0  0  0  0  0  0  0
   -0.2540   15.4190   22.6030 C   0  0  0  0  0  0  0  0  0  0  0  0
    1.2240   11.7300   16.5670 O   0  0  0  0  0  0  0  0  0  0  0  0
    0.8220   15.4010   23.6290 C   0  0  0  0  0  0  0  0  0  0  0  0
    0.2920   13.0360   19.8920 C   0  0  1  0  0  0  0  0  0  0  0  0
   -0.5040   14.0930   19.4350 C   0  0  0  0  0  0  0  0  0  0  0  0
   -0.6210   14.3650   18.0830 C   0  0  0  0  0  0  0  0  0  0  0  0
    0.0480   13.5370   17.2030 C   0  0  0  0  0  0  0  0  0  0  0  0
    0.4830   12.2520   15.4630 C   0  0  0  0  0  0  0  0  0  0  0  0
    0.7950   12.4750   17.6440 C   0  0  1  0  0  0  0  0  0  0  0  0
    0.9450   12.2110   18.9810 C   0  0  0  0  0  0  0  0  0  0  0  0
  2  1  1  0
  3  2  1  0
  4  1  1  1
  6  4  1  0
  8  6  1  0
  8  4  1  0
  9  2  1  1
 10  9  1  0
 11 10  1  0
 12  5  1  0
 12 11  1  0
 13  5  1  0
 13  7  1  0
 14 12  1  0
 14  7  1  0
 14 15  1  1
 15  9  1  0
M  END
>  <ref_pdb>  (13) 
x0853.pdb

>  <pockets>  (13) 
P3, P6, P5

$$$$
x0884_0A
     RDKit          3D

 14 14  0  0  0  0  0  0  0  0999 V2000
    7.3500   12.7160   25.8480 N   0  0  0  0  0  0  0  0  0  0  0  0
    6.4750   10.9570   27.2720 C   0  0  0  0  0  0  0  0  0  0  0  0
    5.3350   13.0110   26.8490 O   0  0  0  0  0  0  0  0  0  0  0  0
    6.3170   12.3080   26.6310 C   0  0  0  0  0  0  0  0  0  0  0  0
   10.9780   12.7110   22.6220 N   0  0  0  0  0  0  0  0  0  0  0  0
   12.5890   14.2630   22.1590 O   0  0  0  0  0  0  0  0  0  0  0  0
    8.1680   11.9670   24.9580 C   0  0  0  0  0  0  0  0  0  0  0  0
   11.7440   14.1190   24.2460 N   0  0  0  0  0  0  0  0  0  0  0  0
    8.0570   10.5970   24.7600 C   0  0  0  0  0  0  0  0  0  0  0  0
    8.9400    9.9440   23.9140 C   0  0  0  0  0  0  0  0  0  0  0  0
    9.9220   10.6510   23.2420 C   0  0  0  0  0  0  0  0  0  0  0  0
   10.0200   12.0240   23.4080 C   0  0  2  0  0  0  0  0  0  0  0  0
   11.7990   13.7500   22.9700 C   0  0  2  0  0  0  0  0  0  0  0  0
    9.1440   12.6810   24.2700 C   0  0  0  0  0  0  0  0  0  0  0  0
  4  3  1  0
  4  1  1  0
  4  2  1  0
  7  1  1  0
  9  7  1  0
 10  9  1  0
 11 10  1  0
 12 11  1  0
 12  5  1  6
 13  8  1  1
 13  6  1  0
 13  5  1  0
 14 12  1  0
 14  7  1  0
M  END
>  <ref_pdb>  (14) 
x0884.pdb

>  <pockets>  (14) 
P1', P1

$$$$
x0528_0A
     RDKit          3D

 15 16  0  0  0  0  0  0  0  0999 V2000
   12.1050   16.0690   21.7860 N   0  0  0  0  0  0  0  0  0  0  0  0
   12.5410   17.1040   20.8600 C   0  0  0  0  0  0  0  0  0  0  0  0
    9.8660   14.1050   23.5110 O   0  0  0  0  0  0  0  0  0  0  0  0
   13.0440   15.3850   22.6540 C   0  0  0  0  0  0  0  0  0  0  0  0
    9.8520   16.2920   21.5560 O   0  0  0  0  0  0  0  0  0  0  0  0
   12.2740   14.1460   23.0960 C   0  0  0  0  0  0  0  0  0  0  0  0
   10.8700   14.2550   22.4890 C   0  0  2  0  0  0  0  0  0  0  0  0
    9.4560   12.8350   23.8680 C   0  0  0  0  0  0  0  0  0  0  0  0
    8.4530   12.7470   24.8220 C   0  0  0  0  0  0  0  0  0  0  0  0
    7.9920   11.5000   25.2120 C   0  0  0  0  0  0  0  0  0  0  0  0
    8.5250   10.3480   24.6580 C   0  0  0  0  0  0  0  0  0  0  0  0
    9.5140   10.4790   23.7240 C   0  0  0  0  0  0  0  0  0  0  0  0
   10.0030   11.6910   23.3010 C   0  0  0  0  0  0  0  0  0  0  0  0
   10.8390   15.6580   21.8970 C   0  0  0  0  0  0  0  0  0  0  0  0
   10.0750    9.3520   23.2130 F   0  0  0  0  0  0  0  0  0  0  0  0
  2  1  1  0
  4  1  1  0
  6  4  1  0
  7  3  1  1
  7  6  1  0
  8  3  1  0
  9  8  1  0
 10  9  1  0
 11 10  1  0
 12 11  1  0
 13 12  1  0
 13  8  1  0
 14  5  1  0
 14  7  1  0
 14  1  1  0
 15 12  1  0
M  END
>  <ref_pdb>  (15) 
x0528.pdb

>  <pockets>  (15) 
P1, P2, P1'

$$$$
x0416_orginal_0A
     RDKit          3D

 15 16  0  0  0  0  0  0  0  0999 V2000
    7.5750   13.4950   25.5120 N   0  0  0  0  0  0  0  0  0  0  0  0
    9.4800    8.8920   22.8620 C   0  0  0  0  0  0  0  0  0  0  0  0
    7.5070   15.1230   23.9160 O   0  0  0  0  0  0  0  0  0  0  0  0
    8.8480   10.1360   23.4400 C   0  0  2  0  0  0  0  0  0  0  0  0
    7.4910   11.1630   25.1580 N   0  0  0  0  0  0  0  0  0  0  0  0
    6.2510   15.3660   27.1570 O   0  0  0  0  0  0  0  0  0  0  0  0
    9.1870   11.3950   22.9840 C   0  0  0  0  0  0  0  0  0  0  0  0
    8.7170   12.5310   23.6110 C   0  0  0  0  0  0  0  0  0  0  0  0
    7.8830   12.3730   24.7250 C   0  0  2  0  0  0  0  0  0  0  0  0
    7.4400   14.7770   25.0910 C   0  0  0  0  0  0  0  0  0  0  0  0
    7.1720   15.8300   26.1600 C   0  0  2  0  0  0  0  0  0  0  0  0
    8.4000   16.1880   26.9710 C   0  0  0  0  0  0  0  0  0  0  0  0
    7.7900   16.8210   28.2170 C   0  0  0  0  0  0  0  0  0  0  0  0
    6.3550   16.3330   28.2130 C   0  0  0  0  0  0  0  0  0  0  0  0
    7.9740   10.0850   24.5170 C   0  0  0  0  0  0  0  0  0  0  0  0
  4  2  1  1
  7  4  1  0
  8  7  1  0
  9  8  1  0
  9  5  1  0
  9  1  1  1
 10  3  1  0
 10  1  1  0
 11 10  1  6
 11  6  1  0
 12 11  1  0
 13 12  1  0
 14  6  1  0
 14 13  1  0
 15  4  1  0
 15  5  1  0
M  END
>  <ref_pdb>  (16) 
x0416_orginal.pdb

>  <pockets>  (16) 
P1

$$$$
x1019_0A
     RDKit          3D

 13 13  0  0  0  0  0  0  0  0999 V2000
    8.4430   12.3410   25.6080 C   0  0  0  0  0  0  0  0  0  0  0  0
   11.1230   10.5600   23.8730 O   0  0  0  0  0  0  0  0  0  0  0  0
    9.1090   11.2960   25.0050 C   0  0  0  0  0  0  0  0  0  0  0  0
   13.3640   12.8670   25.8130 O   0  0  0  0  0  0  0  0  0  0  0  0
   10.3490   11.5330   24.4400 C   0  0  0  0  0  0  0  0  0  0  0  0
   14.3860   12.0900   24.0020 O   0  0  0  0  0  0  0  0  0  0  0  0
   10.4590    9.4940   23.1980 C   0  0  0  0  0  0  0  0  0  0  0  0
   10.9200   12.8090   24.4730 C   0  0  1  0  0  0  0  0  0  0  0  0
   12.2260   13.0930   23.7650 C   0  0  0  0  0  0  0  0  0  0  0  0
   13.4370   12.6280   24.5270 C   0  0  0  0  0  0  0  0  0  0  0  0
   10.2280   13.8240   25.1260 C   0  0  0  0  0  0  0  0  0  0  0  0
    8.9880   13.5990   25.6870 C   0  0  0  0  0  0  0  0  0  0  0  0
    6.7150   12.0370   26.3150 Br  0  0  0  0  0  0  0  0  0  0  0  0
  3  1  1  0
  5  3  1  0
  5  2  1  0
  7  2  1  0
  8  5  1  0
  8  9  1  6
 10  9  1  0
 10  6  1  0
 10  4  1  0
 11  8  1  0
 12 11  1  0
 12  1  1  0
 13  1  1  0
M  END
>  <ref_pdb>  (17) 
x1019.pdb

>  <pockets>  (17) 
P1, P2'

$$$$
x0515_1A
     RDKit          3D

 11 11  0  0  0  0  0  0  0  0999 V2000
    5.9460   10.7530   26.4260 N   0  0  0  0  0  0  0  0  0  0  0  0
   11.0690   11.9480   23.1960 C   0  0  0  0  0  0  0  0  0  0  0  0
    9.6350   11.8910   23.3660 O   0  0  0  0  0  0  0  0  0  0  0  0
    9.1240   12.6610   24.3240 C   0  0  0  0  0  0  0  0  0  0  0  0
    8.5820    9.7730   24.1150 N   0  0  0  0  0  0  0  0  0  0  0  0
    9.4890   13.7850   24.5600 O   0  0  0  0  0  0  0  0  0  0  0  0
    8.0170   11.9870   25.0400 C   0  0  0  0  0  0  0  0  0  0  0  0
    7.1740   12.7340   25.8620 C   0  0  0  0  0  0  0  0  0  0  0  0
    6.1690   12.0660   26.5300 C   0  0  0  0  0  0  0  0  0  0  0  0
    6.7470   10.0510   25.6210 C   0  0  0  0  0  0  0  0  0  0  0  0
    7.7950   10.5980   24.9160 C   0  0  0  0  0  0  0  0  0  0  0  0
  3  2  1  0
  4  3  1  0
  6  4  1  0
  7  4  1  0
  8  7  1  0
  9  1  1  0
  9  8  1  0
 10  1  1  0
 11 10  1  0
 11  5  1  0
 11  7  1  0
M  END
>  <ref_pdb>  (18) 
x0515.pdb

>  <pockets>  (18) 
P1

$$$$
x1140_0A
     RDKit          3D

 15 16  0  0  0  0  0  0  0  0999 V2000
   14.9390   12.3340   24.8980 N   0  0  0  0  0  0  0  0  0  0  0  0
   10.8110   12.1910   24.8940 C   0  0  2  0  0  0  0  0  0  0  0  0
   13.4580    9.8190   24.5060 O   0  0  0  0  0  0  0  0  0  0  0  0
   11.7690   13.5740   25.2700 Cl  0  0  0  0  0  0  0  0  0  0  0  0
    9.4440   12.2690   25.0870 C   0  0  0  0  0  0  0  0  0  0  0  0
    8.6680   11.1330   24.9110 C   0  0  0  0  0  0  0  0  0  0  0  0
    9.2570    9.9480   24.5280 C   0  0  0  0  0  0  0  0  0  0  0  0
   10.6240    9.8850   24.2990 C   0  0  0  0  0  0  0  0  0  0  0  0
   11.4290   11.0110   24.4900 C   0  0  2  0  0  0  0  0  0  0  0  0
   12.9150   10.8900   24.3460 C   0  0  0  0  0  0  0  0  0  0  0  0
   13.7590   12.1230   24.0400 C   0  0  0  0  0  0  0  0  0  0  0  0
   15.9680   11.2950   24.7410 C   0  0  0  0  0  0  0  0  0  0  0  0
   16.5900   11.1370   26.1320 C   0  0  0  0  0  0  0  0  0  0  0  0
   15.9820   12.1110   26.9770 C   0  0  0  0  0  0  0  0  0  0  0  0
   14.6380   12.3320   26.3350 C   0  0  0  0  0  0  0  0  0  0  0  0
  2  4  1  1
  5  2  1  0
  6  5  1  0
  7  6  1  0
  8  7  1  0
  9  8  1  0
  9  2  1  0
 10  3  1  0
  9 10  1  1
 11 10  1  0
 11  1  1  0
 12  1  1  0
 13 12  1  0
 14 13  1  0
 15 14  1  0
 15  1  1  0
M  END
>  <ref_pdb>  (19) 
x1140.pdb

>  <pockets>  (19) 
P1, P2'

$$$$
x0922_0A
     RDKit          3D

 14 14  0  0  0  0  0  0  0  0999 V2000
   10.9940   15.0960   21.4610 N   0  0  0  0  0  0  0  0  0  0  0  0
   12.3790   15.5490   21.4400 C   0  0  0  0  0  0  0  0  0  0  0  0
    9.4290   13.5850   21.9930 O   0  0  0  0  0  0  0  0  0  0  0  0
   10.0250   15.9870   20.8330 C   0  0  0  0  0  0  0  0  0  0  0  0
   11.1160   11.7270   22.8920 O   0  0  0  0  0  0  0  0  0  0  0  0
   10.6020   13.9240   21.9910 C   0  0  0  0  0  0  0  0  0  0  0  0
   11.6610   13.0140   22.5910 C   0  0  0  0  0  0  0  0  0  0  0  0
   10.3600   11.5580   24.0270 C   0  0  1  0  0  0  0  0  0  0  0  0
    9.9040   12.5890   24.8400 C   0  0  0  0  0  0  0  0  0  0  0  0
    9.0520   12.2990   25.8920 C   0  0  0  0  0  0  0  0  0  0  0  0
    8.6580   11.0000   26.1280 C   0  0  0  0  0  0  0  0  0  0  0  0
    9.1260    9.9790   25.3220 C   0  0  0  0  0  0  0  0  0  0  0  0
    9.9980   10.2310   24.2680 C   0  0  0  0  0  0  0  0  0  0  0  0
   10.5700    9.1030   23.4470 C   0  0  0  0  0  0  0  0  0  0  0  0
  2  1  1  0
  4  1  1  0
  6  3  1  0
  6  1  1  0
  7  6  1  0
  7  5  1  0
  8  5  1  6
  9  8  1  0
 10  9  1  0
 11 10  1  0
 12 11  1  0
 13 12  1  0
 13  8  1  0
 14 13  1  0
M  END
>  <ref_pdb>  (20) 
x0922.pdb

>  <pockets>  (20) 
P1, P2

$$$$
x0739_0A
     RDKit          3D

 18 19  0  0  0  0  0  0  0  0999 V2000
    6.2370   15.7050   25.3670 N   0  0  0  0  0  0  0  0  0  0  0  0
    9.6370    8.9810   22.0680 C   0  0  0  0  0  0  0  0  0  0  0  0
    7.4990   13.3470   24.9450 O   0  0  0  0  0  0  0  0  0  0  0  0
    9.0350   10.1780   22.7590 C   0  0  0  0  0  0  0  0  0  0  0  0
    7.8610   16.4710   24.0010 O   0  0  0  0  0  0  0  0  0  0  0  0
    9.5750   11.4440   22.5890 C   0  0  0  0  0  0  0  0  0  0  0  0
    3.7790   16.8860   26.0400 O   0  0  0  0  0  0  0  0  0  0  0  0
    9.0630   12.5410   23.2570 C   0  0  0  0  0  0  0  0  0  0  0  0
    8.0000   12.3660   24.1310 C   0  0  1  0  0  0  0  0  0  0  0  0
    8.3110   14.4820   25.2320 C   0  0  0  0  0  0  0  0  0  0  0  0
    7.4680   15.6540   24.8220 C   0  0  2  0  0  0  0  0  0  0  0  0
    5.0350   15.3730   24.6030 C   0  0  0  0  0  0  0  0  0  0  0  0
    4.0720   16.5180   24.6840 C   0  0  0  0  0  0  0  0  0  0  0  0
    4.4430   16.0330   26.9790 C   0  0  0  0  0  0  0  0  0  0  0  0
    5.9370   16.0180   26.7680 C   0  0  0  0  0  0  0  0  0  0  0  0
    7.4080   11.1160   24.3050 C   0  0  0  0  0  0  0  0  0  0  0  0
    6.2080   10.9330   25.2000 C   0  0  0  0  0  0  0  0  0  0  0  0
    7.9460   10.0400   23.6070 C   0  0  0  0  0  0  0  0  0  0  0  0
  4  2  1  0
  6  4  1  0
  8  6  1  0
  9  8  1  0
  9  3  1  1
 10  3  1  0
 11 10  1  0
 11  1  1  0
 11  5  1  6
 12  1  1  0
 13 12  1  0
 13  7  1  0
 14  7  1  0
 15 14  1  0
 15  1  1  0
 16  9  1  0
 17 16  1  0
 18  4  1  0
 18 16  1  0
M  END
>  <ref_pdb>  (21) 
x0739.pdb

>  <pockets>  (21) 
P1, P3

$$$$
x0365_0A
     RDKit          3D

 14 15  0  0  0  0  0  0  0  0999 V2000
    9.0120    9.9220   23.8490 N   0  0  0  0  0  0  0  0  0  0  0  0
    9.8660    9.1660   22.9450 C   0  0  0  0  0  0  0  0  0  0  0  0
    9.0410   11.3060   24.0900 C   0  0  0  0  0  0  0  0  0  0  0  0
    6.3300   10.0810   25.9600 N   0  0  0  0  0  0  0  0  0  0  0  0
    7.9970   11.5870   24.9140 C   0  0  0  0  0  0  0  0  0  0  0  0
    8.0320    9.2820   24.5150 N   0  0  0  0  0  0  0  0  0  0  0  0
    7.3940   10.2800   25.1640 C   0  0  0  0  0  0  0  0  0  0  0  0
    5.6440   11.1840   26.6090 C   0  0  0  0  0  0  0  0  0  0  0  0
    6.2970   11.5320   27.9220 C   0  0  0  0  0  0  0  0  0  0  0  0
    6.3110   10.6030   28.9540 C   0  0  0  0  0  0  0  0  0  0  0  0
    6.9350   10.8900   30.1560 C   0  0  0  0  0  0  0  0  0  0  0  0
    7.5480   12.1200   30.3440 C   0  0  0  0  0  0  0  0  0  0  0  0
    7.5240   13.0590   29.3330 C   0  0  0  0  0  0  0  0  0  0  0  0
    6.9140   12.7610   28.1250 C   0  0  0  0  0  0  0  0  0  0  0  0
  2  1  1  0
  3  1  1  0
  5  3  1  0
  6  1  1  0
  7  6  1  0
  7  4  1  0
  7  5  1  0
  8  4  1  0
  9  8  1  0
 10  9  1  0
 11 10  1  0
 12 11  1  0
 13 12  1  0
 14 13  1  0
 14  9  1  0
M  END
>  <ref_pdb>  (22) 
x0365.pdb

>  <pockets>  (22) 
P1

$$$$
x0566_original_0A
     RDKit          3D

 13 14  0  0  0  0  0  0  0  0999 V2000
    9.1230   14.0510   22.0390 N   0  0  0  0  0  0  0  0  0  0  0  0
    9.4700   15.1420   21.1510 C   0  0  0  0  0  0  0  0  0  0  0  0
   11.2340   13.3110   22.2590 O   0  0  0  0  0  0  0  0  0  0  0  0
   10.0400   13.2160   22.5260 C   0  0  2  0  0  0  0  0  0  0  0  0
    8.0090   13.4010   24.8920 N   0  0  0  0  0  0  0  0  0  0  0  0
    9.5300   12.0850   23.3570 C   0  0  2  0  0  0  0  0  0  0  0  0
    9.9290   10.7880   23.0320 C   0  0  0  0  0  0  0  0  0  0  0  0
    9.3140    9.6980   23.6210 C   0  0  0  0  0  0  0  0  0  0  0  0
    8.2990    9.8710   24.5490 C   0  0  0  0  0  0  0  0  0  0  0  0
    7.9080   11.1550   24.9450 C   0  0  0  0  0  0  0  0  0  0  0  0
    6.9720   11.6860   25.8870 C   0  0  0  0  0  0  0  0  0  0  0  0
    7.0650   13.0390   25.8190 C   0  0  0  0  0  0  0  0  0  0  0  0
    8.5390   12.2600   24.3390 C   0  0  0  0  0  0  0  0  0  0  0  0
  2  1  1  0
  4  1  1  0
  4  3  1  6
  6  4  1  0
  6  7  1  6
  8  7  1  0
  9  8  1  0
 10  9  1  0
 11 10  1  0
 12 11  1  0
 12  5  1  0
 13 10  1  0
 13  6  1  0
 13  5  1  0
M  END
>  <ref_pdb>  (23) 
x0566_original.pdb

>  <pockets>  (23) 
P2, P1

$$$$
x0526_original_0A
     RDKit          3D

 12 13  0  0  0  0  0  0  0  0999 V2000
    4.2500   11.6560   18.3590 N   0  0  0  0  0  0  0  0  0  0  0  0
    3.5310   10.3190   20.3330 C   0  0  0  0  0  0  0  0  0  0  0  0
    3.3200   11.2880   19.2270 C   0  0  0  0  0  0  0  0  0  0  0  0
    2.1280   11.9220   18.9530 N   0  0  0  0  0  0  0  0  0  0  0  0
    3.6400   12.5420   17.5020 C   0  0  0  0  0  0  0  0  0  0  0  0
   -0.4310   11.6350   21.6550 N   0  0  0  0  0  0  0  0  0  0  0  0
    2.3460   12.7240   17.8420 C   0  0  0  0  0  0  0  0  0  0  0  0
    0.8640   11.8120   19.6350 C   0  0  0  0  0  0  0  0  0  0  0  0
   -0.3090   11.8560   18.8890 C   0  0  0  0  0  0  0  0  0  0  0  0
   -1.5270   11.7980   19.5400 C   0  0  0  0  0  0  0  0  0  0  0  0
   -1.5410   11.6770   20.9130 C   0  0  0  0  0  0  0  0  0  0  0  0
    0.7420   11.7090   21.0170 C   0  0  0  0  0  0  0  0  0  0  0  0
  3  2  1  0
  3  1  1  0
  4  3  1  0
  5  1  1  0
  7  5  1  0
  7  4  1  0
  8  4  1  0
  9  8  1  0
 10  9  1  0
 11 10  1  0
 11  6  1  0
 12  8  1  0
 12  6  1  0
M  END
>  <ref_pdb>  (24) 
x0526_original.pdb

>  <pockets>  (24) 
P6, P5, P4

$$$$
x0451_original_0A
     RDKit          3D

 14 15  0  0  0  0  0  0  0  0999 V2000
   11.1420   13.9030   21.8390 N   0  0  0  0  0  0  0  0  0  0  0  0
   12.1870   14.8800   21.5930 C   0  0  0  0  0  0  0  0  0  0  0  0
   10.6600   14.6040   23.9110 O   0  0  0  0  0  0  0  0  0  0  0  0
   10.5870   13.7530   23.0380 C   0  0  0  0  0  0  0  0  0  0  0  0
    9.2050   10.3530   23.1150 N   0  0  0  0  0  0  0  0  0  0  0  0
    9.8650   12.4880   23.2810 C   0  0  0  0  0  0  0  0  0  0  0  0
   10.1070   11.2830   22.6890 C   0  0  0  0  0  0  0  0  0  0  0  0
    9.1390    8.9700   22.6680 C   0  0  0  0  0  0  0  0  0  0  0  0
    8.3560   10.9450   24.0260 C   0  0  0  0  0  0  0  0  0  0  0  0
    7.2860   10.4120   24.7340 C   0  0  0  0  0  0  0  0  0  0  0  0
    6.5790   11.2510   25.5860 C   0  0  0  0  0  0  0  0  0  0  0  0
    6.9400   12.5830   25.7290 C   0  0  0  0  0  0  0  0  0  0  0  0
    8.0150   13.1070   25.0270 C   0  0  0  0  0  0  0  0  0  0  0  0
    8.7360   12.2870   24.1610 C   0  0  0  0  0  0  0  0  0  0  0  0
  2  1  1  0
  4  3  1  0
  4  1  1  0
  6  4  1  0
  7  5  1  0
  7  6  1  0
  8  5  1  0
  9  5  1  0
 10  9  1  0
 11 10  1  0
 12 11  1  0
 13 12  1  0
 14 13  1  0
 14  9  1  0
 14  6  1  0
M  END
>  <ref_pdb>  (25) 
x0451_original.pdb

>  <pockets>  (25) 
P1', P1

$$$$
x0473_original_0A
     RDKit          3D

 15 15  0  0  0  0  0  0  0  0999 V2000
    0.1880   14.1880   18.8520 N   0  0  0  0  0  0  0  0  0  0  0  0
   -0.8710   13.4900   18.1320 C   0  0  2  0  0  0  0  0  0  0  0  0
    1.5430   14.3270   20.7840 O   0  0  0  0  0  0  0  0  0  0  0  0
   -0.1760   12.4230   17.0640 C   0  0  0  0  0  0  0  0  0  0  0  0
   -0.2380   12.6340   20.5670 O   0  0  0  0  0  0  0  0  0  0  0  0
   -0.8140   12.6260   15.7020 C   0  0  0  0  0  0  0  0  0  0  0  0
    4.6250   11.0890   19.1980 O   0  0  0  0  0  0  0  0  0  0  0  0
   -2.2720   13.9590   16.1240 C   0  0  0  0  0  0  0  0  0  0  0  0
   -1.8810   14.5270   17.4520 C   0  0  0  0  0  0  0  0  0  0  0  0
    1.9710   12.2410   19.2610 C   0  0  1  0  0  0  0  0  0  0  0  0
    3.1450   12.9000   18.5380 C   0  0  0  0  0  0  0  0  0  0  0  0
    4.1310   11.8510   18.0920 C   0  0  0  0  0  0  0  0  0  0  0  0
    3.5590   10.4450   19.8700 C   0  0  0  0  0  0  0  0  0  0  0  0
    2.5750   11.4430   20.4120 C   0  0  0  0  0  0  0  0  0  0  0  0
    0.8080   13.4070   19.9620 S   0  0  1  0  0  0  0  0  0  0  0  0
  2  1  1  0
  2  4  1  6
  6  4  1  0
  9  8  1  0
  9  2  1  0
 10 11  1  1
 12 11  1  0
 12  7  1  0
 13  7  1  0
 14 13  1  0
 14 10  1  0
 15 10  1  0
 15  5  1  1
 15  3  1  0
 15  1  1  0
M  END
>  <ref_pdb>  (26) 
x0473_original.pdb

>  <pockets>  (26) 
P4, P6, P5

$$$$
x0556_original_0A
     RDKit          3D

 14 15  0  0  0  0  0  0  0  0999 V2000
    8.9550   10.2480   24.0490 N   0  0  0  0  0  0  0  0  0  0  0  0
    9.8630    9.2680   23.4680 C   0  0  0  0  0  0  0  0  0  0  0  0
    5.6420   12.0130   26.5060 O   0  0  0  0  0  0  0  0  0  0  0  0
    8.8590   11.5490   23.7460 C   0  0  0  0  0  0  0  0  0  0  0  0
    7.3980   13.3130   24.5960 N   0  0  0  0  0  0  0  0  0  0  0  0
    7.8720   12.0480   24.5480 C   0  0  0  0  0  0  0  0  0  0  0  0
    8.0840    9.8620   25.0140 N   0  0  0  0  0  0  0  0  0  0  0  0
    7.4080   10.9760   25.3240 C   0  0  0  0  0  0  0  0  0  0  0  0
    6.1160    9.8470   26.9850 N   0  0  0  0  0  0  0  0  0  0  0  0
    6.3120   10.9990   26.3260 C   0  0  0  0  0  0  0  0  0  0  0  0
    5.0280    9.6450   27.9430 C   0  0  2  0  0  0  0  0  0  0  0  0
    5.2110    8.5250   28.9640 C   0  0  0  0  0  0  0  0  0  0  0  0
    3.7270    8.1990   28.7940 C   0  0  0  0  0  0  0  0  0  0  0  0
    3.7600    8.9180   27.4420 C   0  0  0  0  0  0  0  0  0  0  0  0
  2  1  1  0
  4  1  1  0
  6  5  1  0
  6  4  1  0
  7  1  1  0
  8  7  1  0
  8  6  1  0
 10  9  1  0
 10  8  1  0
 10  3  1  0
 11  9  1  6
 12 11  1  0
 13 12  1  0
 14 13  1  0
 14 11  1  0
M  END
>  <ref_pdb>  (27) 
x0556_original.pdb

>  <pockets>  (27) 
P1

$$$$
x1080_1A
     RDKit          3D

  6  5  0  0  0  0  0  0  0  0999 V2000
    5.8330   15.4600   23.2120 N   0  0  0  0  0  0  0  0  0  0  0  0
    8.6990   13.3300   22.5650 C   0  0  0  0  0  0  0  0  0  0  0  0
    7.0910   14.3180   24.6680 O   0  0  0  0  0  0  0  0  0  0  0  0
    7.3050   13.8290   22.3210 C   0  0  0  0  0  0  0  0  0  0  0  0
    6.2380   16.6230   22.5650 O   0  0  0  0  0  0  0  0  0  0  0  0
    6.7300   14.5460   23.5150 C   0  0  0  0  0  0  0  0  0  0  0  0
  4  2  1  0
  5  1  1  0
  6  4  1  0
  6  3  1  0
  6  1  1  0
M  END
>  <ref_pdb>  (28) 
x1080.pdb

>  <pockets>  (28) 
P1, P3

$$$$
x0375_2A
     RDKit          3D

 12 12  0  0  0  0  0  0  0  0999 V2000
   10.5440   13.4870   22.8290 N   0  0  0  0  0  0  0  0  0  0  0  0
   10.3370    9.5580   22.9840 C   0  0  0  0  0  0  0  0  0  0  0  0
   10.5650   10.9040   23.3940 O   0  0  0  0  0  0  0  0  0  0  0  0
    9.5120   11.5960   23.9240 C   0  0  0  0  0  0  0  0  0  0  0  0
   12.6490   14.2260   22.4110 N   0  0  0  0  0  0  0  0  0  0  0  0
    8.5240   11.0400   24.7210 C   0  0  0  0  0  0  0  0  0  0  0  0
    7.4760   11.8370   25.1550 C   0  0  0  0  0  0  0  0  0  0  0  0
    7.4220   13.1750   24.8180 C   0  0  0  0  0  0  0  0  0  0  0  0
    8.4120   13.7440   24.0340 C   0  0  0  0  0  0  0  0  0  0  0  0
    9.4720   12.9590   23.5840 C   0  0  0  0  0  0  0  0  0  0  0  0
   11.7920   13.7170   23.2680 C   0  0  0  0  0  0  0  0  0  0  0  0
   12.2190   13.3330   24.8550 S   0  0  0  0  0  0  0  0  0  0  0  0
  3  2  1  0
  4  3  1  0
  6  4  1  0
  7  6  1  0
  8  7  1  0
  9  8  1  0
 10  9  1  0
 10  4  1  0
 10  1  1  0
 11  1  1  0
 11  5  1  0
 12 11  1  0
M  END
>  <ref_pdb>  (29) 
x0375.pdb

>  <pockets>  (29) 
P1', P1

$$$$
x0310_original_0A
     RDKit          3D

 14 14  0  0  0  0  0  0  0  0999 V2000
    8.3390    9.7660   24.0470 N   0  0  0  0  0  0  0  0  0  0  0  0
   10.2030    9.1370   22.5890 C   0  0  0  0  0  0  0  0  0  0  0  0
   10.8750   13.7130   24.2230 O   0  0  0  0  0  0  0  0  0  0  0  0
    9.3440   10.1450   23.2790 C   0  0  0  0  0  0  0  0  0  0  0  0
    7.7990   10.9170   24.5380 N   0  0  0  0  0  0  0  0  0  0  0  0
    6.7170   10.8360   25.5080 C   0  0  0  0  0  0  0  0  0  0  0  0
   10.3720   12.2720   22.5650 N   0  0  0  0  0  0  0  0  0  0  0  0
    8.4190   12.0080   24.0880 C   0  0  0  0  0  0  0  0  0  0  0  0
   12.3400   16.4610   22.7870 N   0  0  0  0  0  0  0  0  0  0  0  0
    8.0190   13.4020   24.4370 C   0  0  0  0  0  0  0  0  0  0  0  0
    9.4210   11.5570   23.2850 C   0  0  0  0  0  0  0  0  0  0  0  0
   11.0750   13.3010   23.0950 C   0  0  0  0  0  0  0  0  0  0  0  0
   12.0990   13.9480   22.1830 C   0  0  0  0  0  0  0  0  0  0  0  0
   12.2770   15.3570   22.5230 C   0  0  0  0  0  0  0  0  0  0  0  0
  4  2  1  0
  4  1  1  0
  5  1  1  0
  6  5  1  0
  8  5  1  0
 10  8  1  0
 11  4  1  0
 11  8  1  0
 11  7  1  0
 12  7  1  0
 12  3  1  0
 13 12  1  0
 14 13  1  0
 14  9  1  0
M  END
>  <ref_pdb>  (30) 
x0310_original.pdb

>  <pockets>  (30) 
P1', P1

$$$$
x1097_1A
     RDKit          3D

 12 13  0  0  0  0  0  0  0  0999 V2000
    8.2790    9.9150   24.8080 N   0  0  0  0  0  0  0  0  0  0  0  0
   10.8960   12.0650   23.0660 C   0  0  0  0  0  0  0  0  0  0  0  0
    9.7380   11.6420   23.9310 C   0  0  0  0  0  0  0  0  0  0  0  0
    9.9880    9.3040   23.4330 N   0  0  0  0  0  0  0  0  0  0  0  0
    9.0420   12.5750   24.6540 C   0  0  0  0  0  0  0  0  0  0  0  0
    7.9540   12.2250   25.4670 C   0  0  0  0  0  0  0  0  0  0  0  0
    7.2010   13.1610   26.2160 C   0  0  0  0  0  0  0  0  0  0  0  0
    6.1530   12.7490   26.9860 C   0  0  0  0  0  0  0  0  0  0  0  0
    5.8110   11.4110   27.0480 C   0  0  0  0  0  0  0  0  0  0  0  0
    6.5100   10.4780   26.3340 C   0  0  0  0  0  0  0  0  0  0  0  0
    7.6020   10.8670   25.5210 C   0  0  0  0  0  0  0  0  0  0  0  0
    9.3310   10.2890   24.0590 C   0  0  0  0  0  0  0  0  0  0  0  0
  3  2  1  0
  5  3  1  0
  6  5  1  0
  7  6  1  0
  8  7  1  0
  9  8  1  0
 10  9  1  0
 11 10  1  0
 11  1  1  0
 11  6  1  0
 12  4  1  0
 12  1  1  0
 12  3  1  0
M  END
>  <ref_pdb>  (31) 
x1097.pdb

>  <pockets>  (31) 
P1

$$$$
