Z2721901805
     RDKit          3D

 23 25  0  0  0  0  0  0  0  0999 V2000
   10.7349    7.9265   23.3149 N   0  0  0  0  0  0  0  0  0  0  0  0
   10.2383    9.0435   22.7057 C   0  0  0  0  0  0  0  0  0  0  0  0
   10.5011    9.1661   21.5161 O   0  0  0  0  0  0  0  0  0  0  0  0
    9.5839   10.1193   23.4604 C   0  0  0  0  0  0  0  0  0  0  0  0
    8.8683    9.9240   24.6539 C   0  0  0  0  0  0  0  0  0  0  0  0
    8.2938   11.0173   25.3170 C   0  0  0  0  0  0  0  0  0  0  0  0
    8.4154   12.3178   24.7986 C   0  0  0  0  0  0  0  0  0  0  0  0
    7.6069   13.7777   25.7346 Br  0  0  0  0  0  0  0  0  0  0  0  0
    9.1396   12.5311   23.6137 C   0  0  0  0  0  0  0  0  0  0  0  0
    9.3194   13.7908   23.0752 O   0  0  0  0  0  0  0  0  0  0  0  0
   10.3539   13.8510   22.0604 C   0  0  2  0  0  0  0  0  0  0  0  0
   11.7290   13.5813   22.6980 C   0  0  0  0  0  0  0  0  0  0  0  0
   12.7321   14.4580   21.9465 C   0  0  0  0  0  0  0  0  0  0  0  0
   11.9152   15.4522   21.2635 N   0  0  0  0  0  0  0  0  0  0  0  0
   12.4644   16.4043   20.3137 C   0  0  0  0  0  0  0  0  0  0  0  0
   12.9595   15.6980   19.0302 C   0  0  0  0  0  0  0  0  0  0  0  0
   14.1666   16.4413   18.4101 C   0  0  0  0  0  0  0  0  0  0  0  0
   14.0292   17.9326   18.5893 C   0  0  0  0  0  0  0  0  0  0  0  0
   14.1967   18.2397   20.0682 C   0  0  0  0  0  0  0  0  0  0  0  0
   13.5761   17.1882   21.0026 C   0  0  0  0  0  0  0  0  0  0  0  0
   10.5679   15.1646   21.3225 C   0  0  0  0  0  0  0  0  0  0  0  0
    9.7297   15.7565   20.6479 O   0  0  0  0  0  0  0  0  0  0  0  0
    9.7031   11.4208   22.9760 C   0  0  0  0  0  0  0  0  0  0  0  0
  1  2  1  0
  2  3  2  0
  2  4  1  0
  4  5  2  0
  5  6  1  0
  6  7  2  0
  7  8  1  0
  7  9  1  0
  9 10  1  0
 11 10  1  1
 11 12  1  0
 12 13  1  0
 13 14  1  0
 14 15  1  0
 15 16  1  0
 16 17  1  0
 17 18  1  0
 18 19  1  0
 19 20  1  0
 14 21  1  0
 21 22  2  0
  9 23  2  0
 23  4  1  0
 21 11  1  0
 20 15  1  0
M  END
>  <cnnaffinity>  (1) 
-5.92659

>  <cnnaffinityIC50>  (1) 
1184.158945162197 nanomolar

>  <smiles>  (1) 
NC(=O)C1=CC=C(Br)C(OC2CCN(C3CCCCC3)C2=O)=C1

>  <origin>  (1) 
x0528_elab_p2_p3.sdf

>  <ref_pdb>  (1) 
x0528

>  <butcher #BAD>  (1) 
8

>  <butcher #GOOD>  (1) 
15

>  <butcher #protein clash>  (1) 
8

>  <butcher #solvent space>  (1) 
0

>  <butcher #pocket>  (1) 
15

>  <butcher #P1>  (1) 
10

>  <butcher #P2>  (1) 
3

>  <butcher #P1'>  (1) 
2

>  <butcher #P2'>  (1) 
0

>  <butcher #P3>  (1) 
0

>  <butcher #P4>  (1) 
0

>  <butcher #P5>  (1) 
0

>  <butcher #P6>  (1) 
0

>  <ref_mols>  (1) 
A71x0528a,A71x0556a

$$$$
Z2748966443
     RDKit          3D

 27 29  0  0  0  0  0  0  0  0999 V2000
    3.2195    7.4628   25.8115 C   0  0  0  0  0  0  0  0  0  0  0  0
    4.4952    8.1109   25.8982 O   0  0  0  0  0  0  0  0  0  0  0  0
    4.9043    8.5273   27.1464 C   0  0  0  0  0  0  0  0  0  0  0  0
    4.4425    7.9409   28.3412 C   0  0  0  0  0  0  0  0  0  0  0  0
    3.2509    6.4391   28.3182 Br  0  0  0  0  0  0  0  0  0  0  0  0
    4.8680    8.4443   29.5734 C   0  0  0  0  0  0  0  0  0  0  0  0
    5.7556    9.5205   29.6429 C   0  0  0  0  0  0  0  0  0  0  0  0
    6.2995   10.2054   31.3425 Br  0  0  0  0  0  0  0  0  0  0  0  0
    6.2363   10.0865   28.4609 C   0  0  0  0  0  0  0  0  0  0  0  0
    5.8208    9.5932   27.2122 C   0  0  0  0  0  0  0  0  0  0  0  0
    6.3075   10.2147   25.9287 C   0  0  0  0  0  0  0  0  0  0  0  0
    7.7729   10.2100   25.8280 N   0  0  0  0  0  0  0  0  0  0  0  0
    8.3631   11.2192   25.0676 C   0  0  0  0  0  0  0  0  0  0  0  0
    8.0008   12.5513   25.2964 C   0  0  0  0  0  0  0  0  0  0  0  0
    8.4738   13.5775   24.4638 C   0  0  0  0  0  0  0  0  0  0  0  0
    9.3054   13.2773   23.3821 C   0  0  0  0  0  0  0  0  0  0  0  0
    9.6780   14.2388   22.4807 O   0  0  0  0  0  0  0  0  0  0  0  0
   10.7297   15.1296   22.9110 C   0  0  1  0  0  0  0  0  0  0  0  0
   12.0778   14.4010   23.0668 C   0  0  0  0  0  0  0  0  0  0  0  0
   13.1633   15.3574   22.5515 C   0  0  0  0  0  0  0  0  0  0  0  0
   12.4504   16.3448   21.7570 N   0  0  0  0  0  0  0  0  0  0  0  0
   13.0800   17.0706   20.6603 C   0  0  0  0  0  0  0  0  0  0  0  0
   11.0799   16.2050   21.8766 C   0  0  0  0  0  0  0  0  0  0  0  0
   10.2993   16.8189   21.1492 O   0  0  0  0  0  0  0  0  0  0  0  0
    9.6968   11.9541   23.1766 C   0  0  0  0  0  0  0  0  0  0  0  0
    9.2609   10.9213   24.0224 C   0  0  0  0  0  0  0  0  0  0  0  0
    9.7308    9.5200   23.7394 C   0  0  0  0  0  0  0  0  0  0  0  0
  1  2  1  0
  2  3  1  0
  3  4  2  0
  4  5  1  0
  4  6  1  0
  6  7  2  0
  7  8  1  0
  7  9  1  0
  9 10  2  0
 10 11  1  0
 11 12  1  0
 12 13  1  0
 13 14  2  0
 14 15  1  0
 15 16  2  0
 16 17  1  0
 18 17  1  6
 18 19  1  0
 19 20  1  0
 20 21  1  0
 21 22  1  0
 21 23  1  0
 23 24  2  0
 16 25  1  0
 25 26  2  0
 26 27  1  0
 10  3  1  0
 26 13  1  0
 23 18  1  0
M  END
>  <cnnaffinity>  (2) 
-5.84683

>  <cnnaffinityIC50>  (2) 
1422.8856517257375 nanomolar

>  <smiles>  (2) 
COC1=C(Br)C=C(Br)C=C1CNC1=CC=C(OC2CCN(C)C2=O)C=C1C

>  <origin>  (2) 
x0528_elab_p2_p3.sdf

>  <ref_pdb>  (2) 
x0528

>  <butcher #BAD>  (2) 
13

>  <butcher #GOOD>  (2) 
14

>  <butcher #protein clash>  (2) 
5

>  <butcher #solvent space>  (2) 
8

>  <butcher #pocket>  (2) 
14

>  <butcher #P1>  (2) 
10

>  <butcher #P2>  (2) 
1

>  <butcher #P1'>  (2) 
3

>  <butcher #P2'>  (2) 
0

>  <butcher #P3>  (2) 
0

>  <butcher #P4>  (2) 
0

>  <butcher #P5>  (2) 
0

>  <butcher #P6>  (2) 
0

>  <ref_mols>  (2) 
A71x0528a,A71x0556a

$$$$
Z3514530609
     RDKit          3D

 23 24  0  0  0  0  0  0  0  0999 V2000
   12.5580   15.3268   19.0435 C   0  0  0  0  0  0  0  0  0  0  0  0
   13.1907   16.3426   19.6168 C   0  0  0  0  0  0  0  0  0  0  0  0
   12.7759   17.0314   20.9023 C   0  0  0  0  0  0  0  0  0  0  0  0
   12.2134   16.1651   21.9106 N   0  0  0  0  0  0  0  0  0  0  0  0
   13.0296   15.3029   22.7434 C   0  0  0  0  0  0  0  0  0  0  0  0
   12.0514   14.2031   23.1850 C   0  0  0  0  0  0  0  0  0  0  0  0
   10.6681   14.8902   23.1300 C   0  0  2  0  0  0  0  0  0  0  0  0
    9.5433   14.1086   22.7343 O   0  0  0  0  0  0  0  0  0  0  0  0
    9.3451   12.9037   23.3694 C   0  0  0  0  0  0  0  0  0  0  0  0
    8.4840   12.7972   24.4658 C   0  0  0  0  0  0  0  0  0  0  0  0
    8.2733   11.5453   25.0505 C   0  0  0  0  0  0  0  0  0  0  0  0
    7.2366   11.4124   26.1335 C   0  0  0  0  0  0  0  0  0  0  0  0
    7.3099   12.4205   27.0216 F   0  0  0  0  0  0  0  0  0  0  0  0
    7.3593   10.2658   26.8191 F   0  0  0  0  0  0  0  0  0  0  0  0
    5.9854   11.4316   25.6301 F   0  0  0  0  0  0  0  0  0  0  0  0
    8.9397   10.4135   24.5900 C   0  0  0  0  0  0  0  0  0  0  0  0
    9.7340   10.5466   23.4643 C   0  0  0  0  0  0  0  0  0  0  0  0
   10.3665    9.3681   22.8641 N   0  0  0  0  0  4  0  0  0  0  0  0
   10.4554    8.3587   23.5399 O   0  0  0  0  0  0  0  0  0  0  0  0
   10.7468    9.4723   21.7105 O   0  0  0  0  0  1  0  0  0  0  0  0
    9.9375   11.7633   22.8378 C   0  0  0  0  0  0  0  0  0  0  0  0
   10.8706   15.9940   22.0790 C   0  0  0  0  0  0  0  0  0  0  0  0
   10.0110   16.6120   21.4821 O   0  0  0  0  0  0  0  0  0  0  0  0
  1  2  2  0
  2  3  1  0
  3  4  1  0
  4  5  1  0
  5  6  1  0
  6  7  1  0
  7  8  1  6
  8  9  1  0
  9 10  2  0
 10 11  1  0
 11 12  1  0
 12 13  1  0
 12 14  1  0
 12 15  1  0
 11 16  2  0
 16 17  1  0
 17 18  1  0
 18 19  2  0
 18 20  1  0
 17 21  2  0
  7 22  1  0
 22 23  2  0
 22  4  1  0
 21  9  1  0
M  CHG  2  18   1  20  -1
M  END
>  <cnnaffinity>  (3) 
-5.81329

>  <cnnaffinityIC50>  (3) 
1537.1278808861305 nanomolar

>  <smiles>  (3) 
C=CCN1CCC(OC2=CC(C(F)(F)F)=CC([N+](=O)[O-])=C2)C1=O

>  <origin>  (3) 
x0528_elab_p2_p3.sdf

>  <ref_pdb>  (3) 
x0528

>  <butcher #BAD>  (3) 
7

>  <butcher #GOOD>  (3) 
16

>  <butcher #protein clash>  (3) 
7

>  <butcher #solvent space>  (3) 
0

>  <butcher #pocket>  (3) 
16

>  <butcher #P1>  (3) 
12

>  <butcher #P2>  (3) 
0

>  <butcher #P1'>  (3) 
4

>  <butcher #P2'>  (3) 
0

>  <butcher #P3>  (3) 
0

>  <butcher #P4>  (3) 
0

>  <butcher #P5>  (3) 
0

>  <butcher #P6>  (3) 
0

>  <ref_mols>  (3) 
A71x0528a,A71x0556a

$$$$
Z5026145405
     RDKit          3D

 23 25  0  0  0  0  0  0  0  0999 V2000
   10.4381    9.3447   21.6426 N   0  0  0  0  0  0  0  0  0  0  0  0
   10.6742    9.6686   22.9486 C   0  0  0  0  0  0  0  0  0  0  0  0
   11.6805    9.2015   23.4530 O   0  0  0  0  0  0  0  0  0  0  0  0
    9.8456   10.6803   23.6018 C   0  0  0  0  0  0  0  0  0  0  0  0
    8.9188   10.3507   24.6088 C   0  0  0  0  0  0  0  0  0  0  0  0
    8.1266   11.3390   25.1948 C   0  0  0  0  0  0  0  0  0  0  0  0
    6.8717   10.8659   26.5551 Br  0  0  0  0  0  0  0  0  0  0  0  0
    8.2694   12.6661   24.7829 C   0  0  0  0  0  0  0  0  0  0  0  0
    9.2004   13.0261   23.8039 C   0  0  0  0  0  0  0  0  0  0  0  0
    9.2953   14.3517   23.4682 O   0  0  0  0  0  0  0  0  0  0  0  0
   10.5437   14.9174   22.9870 C   0  0  1  0  0  0  0  0  0  0  0  0
   11.8789   14.2727   23.3710 C   0  0  0  0  0  0  0  0  0  0  0  0
   12.8755   14.8825   22.3642 C   0  0  0  0  0  0  0  0  0  0  0  0
   12.0758   15.2967   21.2030 N   0  0  0  0  0  0  0  0  0  0  0  0
   12.3142   16.5472   20.4706 C   0  0  0  0  0  0  0  0  0  0  0  0
   13.7493   16.9401   20.1123 C   0  0  0  0  0  0  0  0  0  0  0  0
   14.5824   17.2377   21.3570 C   0  0  0  0  0  0  0  0  0  0  0  0
   13.9650   18.2559   22.1153 O   0  0  0  0  0  0  0  0  0  0  0  0
   12.6352   17.9987   22.5059 C   0  0  0  0  0  0  0  0  0  0  0  0
   11.7241   17.6853   21.3051 C   0  0  0  0  0  0  0  0  0  0  0  0
   10.7354   15.0632   21.4809 C   0  0  0  0  0  0  0  0  0  0  0  0
    9.8375   15.2982   20.6714 O   0  0  0  0  0  0  0  0  0  0  0  0
    9.9640   12.0254   23.1983 C   0  0  0  0  0  0  0  0  0  0  0  0
  1  2  1  0
  2  3  2  0
  2  4  1  0
  4  5  2  0
  5  6  1  0
  6  7  1  0
  6  8  2  0
  8  9  1  0
  9 10  1  0
 11 10  1  6
 11 12  1  0
 12 13  1  0
 13 14  1  0
 14 15  1  0
 15 16  1  0
 16 17  1  0
 17 18  1  0
 18 19  1  0
 19 20  1  0
 14 21  1  0
 21 22  2  0
  9 23  2  0
 23  4  1  0
 21 11  1  0
 20 15  1  0
M  END
>  <cnnaffinity>  (4) 
-5.64512

>  <cnnaffinityIC50>  (4) 
2264.0186496880406 nanomolar

>  <smiles>  (4) 
NC(=O)C1=CC(Br)=CC(OC2CCN(C3CCOCC3)C2=O)=C1

>  <origin>  (4) 
x0528_elab_p2_p3.sdf

>  <ref_pdb>  (4) 
x0528

>  <butcher #BAD>  (4) 
8

>  <butcher #GOOD>  (4) 
15

>  <butcher #protein clash>  (4) 
8

>  <butcher #solvent space>  (4) 
0

>  <butcher #pocket>  (4) 
15

>  <butcher #P1>  (4) 
9

>  <butcher #P2>  (4) 
3

>  <butcher #P1'>  (4) 
3

>  <butcher #P2'>  (4) 
0

>  <butcher #P3>  (4) 
0

>  <butcher #P4>  (4) 
0

>  <butcher #P5>  (4) 
0

>  <butcher #P6>  (4) 
0

>  <ref_mols>  (4) 
A71x0528a,A71x0556a

$$$$
Z2721846455
     RDKit          3D

 25 28  0  0  0  0  0  0  0  0999 V2000
    5.1209    9.4471   26.6576 O   0  0  0  0  0  0  0  0  0  0  0  0
    5.8804   10.3971   26.6864 C   0  0  0  0  0  0  0  0  0  0  0  0
    5.5015   11.7326   27.2844 C   0  0  0  0  0  0  0  0  0  0  0  0
    6.6448   12.3771   28.0692 C   0  0  0  0  0  0  0  0  0  0  0  0
    7.5391   13.2329   27.1753 C   0  0  0  0  0  0  0  0  0  0  0  0
    7.9770   12.6368   25.8443 C   0  0  0  0  0  0  0  0  0  0  0  0
    8.4866   13.5401   24.9000 C   0  0  0  0  0  0  0  0  0  0  0  0
    8.9710   13.1180   23.6697 C   0  0  0  0  0  0  0  0  0  0  0  0
    9.2454   14.0119   22.6590 O   0  0  0  0  0  0  0  0  0  0  0  0
   10.5127   14.6491   22.6827 C   0  0  1  0  0  0  0  0  0  0  0  0
   11.7408   13.7238   22.7479 C   0  0  0  0  0  0  0  0  0  0  0  0
   12.6620   14.1418   21.5800 C   0  0  0  0  0  0  0  0  0  0  0  0
   11.8540   15.0434   20.7594 N   0  0  0  0  0  0  0  0  0  0  0  0
   12.4996   16.0805   19.9607 C   0  0  0  0  0  0  0  0  0  0  0  0
   13.1403   15.6142   18.6392 C   0  0  0  0  0  0  0  0  0  0  0  0
   14.3496   16.5000   18.2682 C   0  0  0  0  0  0  0  0  0  0  0  0
   14.1202   17.9760   18.5700 C   0  0  0  0  0  0  0  0  0  0  0  0
   13.7796   18.1877   20.0546 C   0  0  0  0  0  0  0  0  0  0  0  0
   13.4985   16.8838   20.7841 C   0  0  0  0  0  0  0  0  0  0  0  0
   10.6662   15.3992   21.3607 C   0  0  0  0  0  0  0  0  0  0  0  0
    9.8889   16.2241   20.9227 O   0  0  0  0  0  0  0  0  0  0  0  0
    9.0730   11.7530   23.4094 C   0  0  0  0  0  0  0  0  0  0  0  0
    8.5287   10.8535   24.3043 C   0  0  0  0  0  0  0  0  0  0  0  0
    7.8964   11.2841   25.4764 C   0  0  0  0  0  0  0  0  0  0  0  0
    7.1666   10.2902   26.1788 N   0  0  0  0  0  0  0  0  0  0  0  0
  1  2  2  0
  2  3  1  0
  3  4  1  0
  4  5  1  0
  5  6  1  0
  6  7  2  0
  7  8  1  0
  8  9  1  0
 10  9  1  6
 10 11  1  0
 11 12  1  0
 12 13  1  0
 13 14  1  0
 14 15  1  0
 15 16  1  0
 16 17  1  0
 17 18  1  0
 18 19  1  0
 13 20  1  0
 20 21  2  0
  8 22  2  0
 22 23  1  0
 23 24  2  0
 24 25  1  0
 25  2  1  0
 24  6  1  0
 20 10  1  0
 19 14  1  0
M  END
>  <cnnaffinity>  (5) 
-5.6259

>  <cnnaffinityIC50>  (5) 
2366.464533352565 nanomolar

>  <smiles>  (5) 
O=C1CCCC2=CC(OC3CCN(C4CCCCC4)C3=O)=CC=C2N1

>  <origin>  (5) 
x0528_elab_p2_p3.sdf

>  <ref_pdb>  (5) 
x0528

>  <butcher #BAD>  (5) 
11

>  <butcher #GOOD>  (5) 
14

>  <butcher #protein clash>  (5) 
7

>  <butcher #solvent space>  (5) 
4

>  <butcher #pocket>  (5) 
14

>  <butcher #P1>  (5) 
10

>  <butcher #P2>  (5) 
2

>  <butcher #P1'>  (5) 
2

>  <butcher #P2'>  (5) 
0

>  <butcher #P3>  (5) 
0

>  <butcher #P4>  (5) 
0

>  <butcher #P5>  (5) 
0

>  <butcher #P6>  (5) 
0

>  <ref_mols>  (5) 
A71x0528a,A71x0556a

$$$$
Z2721907542
     RDKit          3D

 25 27  0  0  0  0  0  0  0  0999 V2000
    9.7130   15.2532   20.5305 O   0  0  0  0  0  0  0  0  0  0  0  0
   10.6120   14.7213   21.1494 C   0  0  0  0  0  0  0  0  0  0  0  0
   10.5303   13.5384   22.1154 C   0  0  2  0  0  0  0  0  0  0  0  0
    9.3638   13.5410   22.9002 O   0  0  0  0  0  0  0  0  0  0  0  0
    9.1394   12.3642   23.5611 C   0  0  0  0  0  0  0  0  0  0  0  0
    8.1813   12.3692   24.5738 C   0  0  0  0  0  0  0  0  0  0  0  0
    7.9148   11.1990   25.2723 C   0  0  0  0  0  0  0  0  0  0  0  0
    6.8647   11.2378   26.3442 C   0  0  0  0  0  0  0  0  0  0  0  0
    6.9607   10.2017   27.1944 F   0  0  0  0  0  0  0  0  0  0  0  0
    5.6173   11.2145   25.8346 F   0  0  0  0  0  0  0  0  0  0  0  0
    6.9602   12.3674   27.0733 F   0  0  0  0  0  0  0  0  0  0  0  0
    8.5887   10.0123   24.9824 C   0  0  0  0  0  0  0  0  0  0  0  0
    9.5402   10.0128   23.9716 C   0  0  0  0  0  0  0  0  0  0  0  0
   10.3051    8.8056   23.5066 C   0  0  0  0  0  0  0  0  0  0  0  0
   10.1302    8.6376   22.1047 O   0  0  0  0  0  0  0  0  0  0  0  0
    9.7958   11.1761   23.2573 C   0  0  0  0  0  0  0  0  0  0  0  0
   11.8481   13.6142   22.8975 C   0  0  0  0  0  0  0  0  0  0  0  0
   12.8135   14.1945   21.8647 C   0  0  0  0  0  0  0  0  0  0  0  0
   11.9426   14.9945   21.0202 N   0  0  0  0  0  0  0  0  0  0  0  0
   12.4109   16.0751   20.1873 C   0  0  0  0  0  0  0  0  0  0  0  0
   12.9652   15.6478   18.8038 C   0  0  0  0  0  0  0  0  0  0  0  0
   14.1930   16.4805   18.3817 C   0  0  0  0  0  0  0  0  0  0  0  0
   14.0938   17.9753   18.6915 C   0  0  0  0  0  0  0  0  0  0  0  0
   13.5683   18.2272   20.1163 C   0  0  0  0  0  0  0  0  0  0  0  0
   13.4125   16.9511   20.9259 C   0  0  0  0  0  0  0  0  0  0  0  0
  1  2  2  0
  2  3  1  0
  3  4  1  1
  4  5  1  0
  5  6  2  0
  6  7  1  0
  7  8  1  0
  8  9  1  0
  8 10  1  0
  8 11  1  0
  7 12  2  0
 12 13  1  0
 13 14  1  0
 14 15  1  0
 13 16  2  0
  3 17  1  0
 17 18  1  0
 18 19  1  0
 19 20  1  0
 20 21  1  0
 21 22  1  0
 22 23  1  0
 23 24  1  0
 24 25  1  0
 19  2  1  0
 25 20  1  0
 16  5  1  0
M  END
>  <cnnaffinity>  (6) 
-5.62323

>  <cnnaffinityIC50>  (6) 
2381.058139926493 nanomolar

>  <smiles>  (6) 
O=C1C(OC2=CC(C(F)(F)F)=CC(CO)=C2)CCN1C1CCCCC1

>  <origin>  (6) 
x0528_elab_p2_p3.sdf

>  <ref_pdb>  (6) 
x0528

>  <butcher #BAD>  (6) 
8

>  <butcher #GOOD>  (6) 
17

>  <butcher #protein clash>  (6) 
8

>  <butcher #solvent space>  (6) 
0

>  <butcher #pocket>  (6) 
17

>  <butcher #P1>  (6) 
12

>  <butcher #P2>  (6) 
3

>  <butcher #P1'>  (6) 
2

>  <butcher #P2'>  (6) 
0

>  <butcher #P3>  (6) 
0

>  <butcher #P4>  (6) 
0

>  <butcher #P5>  (6) 
0

>  <butcher #P6>  (6) 
0

>  <ref_mols>  (6) 
A71x0528a,A71x0556a

$$$$
Z2442798079
     RDKit          3D

 23 25  0  0  0  0  0  0  0  0999 V2000
   10.4097    9.3459   21.6630 N   0  0  0  0  0  0  0  0  0  0  0  0
   10.6821    9.6966   22.9562 C   0  0  0  0  0  0  0  0  0  0  0  0
   11.6505    9.1763   23.4735 O   0  0  0  0  0  0  0  0  0  0  0  0
    9.8660   10.7036   23.6311 C   0  0  0  0  0  0  0  0  0  0  0  0
    9.0227   10.3735   24.7079 C   0  0  0  0  0  0  0  0  0  0  0  0
    8.2314   11.3587   25.3060 C   0  0  0  0  0  0  0  0  0  0  0  0
    8.3133   12.6883   24.8696 C   0  0  0  0  0  0  0  0  0  0  0  0
    7.2412   14.0101   25.7469 Br  0  0  0  0  0  0  0  0  0  0  0  0
    9.1726   13.0383   23.8101 C   0  0  0  0  0  0  0  0  0  0  0  0
    9.2495   14.3426   23.3903 O   0  0  0  0  0  0  0  0  0  0  0  0
   10.5083   14.9069   22.9279 C   0  0  1  0  0  0  0  0  0  0  0  0
   11.8401   14.2593   23.3212 C   0  0  0  0  0  0  0  0  0  0  0  0
   12.8543   14.8810   22.3357 C   0  0  0  0  0  0  0  0  0  0  0  0
   12.0737   15.3073   21.1703 N   0  0  0  0  0  0  0  0  0  0  0  0
   12.3299   16.5685   20.4566 C   0  0  0  0  0  0  0  0  0  0  0  0
   11.7397   17.7075   21.2880 C   0  0  0  0  0  0  0  0  0  0  0  0
   12.6419   17.9992   22.5005 C   0  0  0  0  0  0  0  0  0  0  0  0
   13.9739   18.2577   22.1199 O   0  0  0  0  0  0  0  0  0  0  0  0
   14.5940   17.2424   21.3608 C   0  0  0  0  0  0  0  0  0  0  0  0
   13.7731   16.9510   20.1085 C   0  0  0  0  0  0  0  0  0  0  0  0
   10.7308   15.0667   21.4255 C   0  0  0  0  0  0  0  0  0  0  0  0
    9.8578   15.2681   20.5829 O   0  0  0  0  0  0  0  0  0  0  0  0
    9.9077   12.0336   23.1788 C   0  0  0  0  0  0  0  0  0  0  0  0
  1  2  1  0
  2  3  2  0
  2  4  1  0
  4  5  2  0
  5  6  1  0
  6  7  2  0
  7  8  1  0
  7  9  1  0
  9 10  1  0
 11 10  1  6
 11 12  1  0
 12 13  1  0
 13 14  1  0
 14 15  1  0
 15 16  1  0
 16 17  1  0
 17 18  1  0
 18 19  1  0
 19 20  1  0
 14 21  1  0
 21 22  2  0
  9 23  2  0
 23  4  1  0
 21 11  1  0
 20 15  1  0
M  END
>  <cnnaffinity>  (7) 
-5.61471

>  <cnnaffinityIC50>  (7) 
2428.2310043101143 nanomolar

>  <smiles>  (7) 
NC(=O)C1=CC=C(Br)C(OC2CCN(C3CCOCC3)C2=O)=C1

>  <origin>  (7) 
x0528_elab_p2_p3.sdf

>  <ref_pdb>  (7) 
x0528

>  <butcher #BAD>  (7) 
8

>  <butcher #GOOD>  (7) 
15

>  <butcher #protein clash>  (7) 
8

>  <butcher #solvent space>  (7) 
0

>  <butcher #pocket>  (7) 
15

>  <butcher #P1>  (7) 
9

>  <butcher #P2>  (7) 
3

>  <butcher #P1'>  (7) 
3

>  <butcher #P2'>  (7) 
0

>  <butcher #P3>  (7) 
0

>  <butcher #P4>  (7) 
0

>  <butcher #P5>  (7) 
0

>  <butcher #P6>  (7) 
0

>  <ref_mols>  (7) 
A71x0528a,A71x0556a

$$$$
PV-004947541019
     RDKit          3D

 23 24  0  0  0  0  0  0  0  0999 V2000
   12.4193   15.5128   18.9897 C   0  0  0  0  0  0  0  0  0  0  0  0
   13.1082   16.5230   19.6274 C   0  0  0  0  0  0  0  0  0  0  0  0
   12.6614   17.1848   20.9094 C   0  0  0  0  0  0  0  0  0  0  0  0
   12.1811   16.1940   21.8644 N   0  0  0  0  0  0  0  0  0  0  0  0
   13.0880   15.3508   22.6297 C   0  0  0  0  0  0  0  0  0  0  0  0
   12.2641   14.1285   23.0746 C   0  0  0  0  0  0  0  0  0  0  0  0
   10.8556   14.2824   22.4678 C   0  0  1  0  0  0  0  0  0  0  0  0
    9.8359   14.1991   23.4944 O   0  0  0  0  0  0  0  0  0  0  0  0
    9.4406   12.9371   23.8980 C   0  0  0  0  0  0  0  0  0  0  0  0
    8.4144   12.7938   24.8594 C   0  0  0  0  0  0  0  0  0  0  0  0
    7.8516   13.9723   25.4508 C   0  0  0  0  0  0  0  0  0  0  0  0
    7.4047   14.9221   25.9603 N   0  0  0  0  0  0  0  0  0  0  0  0
    7.9673   11.5016   25.2462 C   0  0  0  0  0  0  0  0  0  0  0  0
    6.8374   11.3276   26.2586 C   0  0  0  0  0  0  0  0  0  0  0  0
    6.5776   10.0168   26.5087 F   0  0  0  0  0  0  0  0  0  0  0  0
    5.6997   11.9014   25.7839 F   0  0  0  0  0  0  0  0  0  0  0  0
    7.1808   11.9254   27.4305 F   0  0  0  0  0  0  0  0  0  0  0  0
    8.5937   10.3729   24.6771 C   0  0  0  0  0  0  0  0  0  0  0  0
    9.6289   10.5102   23.7526 C   0  0  0  0  0  0  0  0  0  0  0  0
   10.4985    8.9695   23.0255 Br  0  0  0  0  0  0  0  0  0  0  0  0
   10.0343   11.7840   23.3640 C   0  0  0  0  0  0  0  0  0  0  0  0
   10.9310   15.6232   21.7381 C   0  0  0  0  0  0  0  0  0  0  0  0
   10.0903   16.0269   20.9363 O   0  0  0  0  0  0  0  0  0  0  0  0
  1  2  2  0
  2  3  1  0
  3  4  1  0
  4  5  1  0
  5  6  1  0
  6  7  1  0
  7  8  1  1
  8  9  1  0
  9 10  2  0
 10 11  1  0
 11 12  3  0
 10 13  1  0
 13 14  1  0
 14 15  1  0
 14 16  1  0
 14 17  1  0
 13 18  2  0
 18 19  1  0
 19 20  1  0
 19 21  2  0
  7 22  1  0
 22 23  2  0
 22  4  1  0
 21  9  1  0
M  END
>  <cnnaffinity>  (8) 
-5.60369

>  <cnnaffinityIC50>  (8) 
2490.634502270618 nanomolar

>  <smiles>  (8) 
C=CCN1CCC(OC2=C(C#N)C(C(F)(F)F)=CC(Br)=C2)C1=O

>  <origin>  (8) 
x0528_elab_p2_p3.sdf

>  <ref_pdb>  (8) 
x0528

>  <butcher #BAD>  (8) 
5

>  <butcher #GOOD>  (8) 
18

>  <butcher #protein clash>  (8) 
4

>  <butcher #solvent space>  (8) 
1

>  <butcher #pocket>  (8) 
18

>  <butcher #P1>  (8) 
14

>  <butcher #P2>  (8) 
2

>  <butcher #P1'>  (8) 
2

>  <butcher #P2'>  (8) 
0

>  <butcher #P3>  (8) 
0

>  <butcher #P4>  (8) 
0

>  <butcher #P5>  (8) 
0

>  <butcher #P6>  (8) 
0

>  <ref_mols>  (8) 
A71x0528a,A71x0556a

$$$$
Z1983254936
     RDKit          3D

 24 25  0  0  0  0  0  0  0  0999 V2000
   12.4918   15.4392   19.3031 C   0  0  0  0  0  0  0  0  0  0  0  0
   12.7974   16.5414   19.9787 C   0  0  0  0  0  0  0  0  0  0  0  0
   12.3660   16.8896   21.3868 C   0  0  0  0  0  0  0  0  0  0  0  0
   11.8711   15.7925   22.1775 N   0  0  0  0  0  0  0  0  0  0  0  0
   12.7165   14.8705   22.9184 C   0  0  0  0  0  0  0  0  0  0  0  0
   11.7775   13.6822   23.2016 C   0  0  0  0  0  0  0  0  0  0  0  0
   10.3639   14.2858   23.0989 C   0  0  2  0  0  0  0  0  0  0  0  0
    9.3477   13.4155   22.6448 O   0  0  0  0  0  0  0  0  0  0  0  0
    9.0524   12.3959   23.5229 C   0  0  0  0  0  0  0  0  0  0  0  0
    8.1916   12.5941   24.5919 C   0  0  0  0  0  0  0  0  0  0  0  0
    7.8060   11.5296   25.4293 C   0  0  0  0  0  0  0  0  0  0  0  0
    6.7874   11.7098   26.4792 C   0  0  0  0  0  0  0  0  0  0  0  0
    6.2875   10.7249   27.2397 C   0  0  0  0  0  0  0  0  0  0  0  0
    5.1650   10.8743   28.1922 C   0  0  0  0  0  0  0  0  0  0  0  0
    4.7308    9.9626   28.8585 O   0  0  0  0  0  0  0  0  0  0  0  0
    4.6523   12.1198   28.2418 O   0  0  0  0  0  0  0  0  0  0  0  0
    3.5447   12.2472   29.1332 C   0  0  0  0  0  0  0  0  0  0  0  0
    8.4037   10.2919   25.2126 C   0  0  0  0  0  0  0  0  0  0  0  0
    9.2844   10.0857   24.1642 C   0  0  0  0  0  0  0  0  0  0  0  0
    9.5821   11.1139   23.2740 C   0  0  0  0  0  0  0  0  0  0  0  0
   10.3484   10.9511   22.1676 O   0  0  0  0  0  0  0  0  0  0  0  0
   10.7449    9.6262   21.8770 C   0  0  0  0  0  0  0  0  0  0  0  0
   10.5584   15.4325   22.1026 C   0  0  0  0  0  0  0  0  0  0  0  0
    9.7368   15.9717   21.3883 O   0  0  0  0  0  0  0  0  0  0  0  0
  1  2  2  0
  2  3  1  0
  3  4  1  0
  4  5  1  0
  5  6  1  0
  6  7  1  0
  7  8  1  6
  8  9  1  0
  9 10  2  0
 10 11  1  0
 11 12  1  0
 12 13  2  3
 13 14  1  0
 14 15  2  0
 14 16  1  0
 16 17  1  0
 11 18  2  0
 18 19  1  0
 19 20  2  0
 20 21  1  0
 21 22  1  0
  7 23  1  0
 23 24  2  0
 23  4  1  0
 20  9  1  0
M  END
>  <cnnaffinity>  (9) 
-5.58333

>  <cnnaffinityIC50>  (9) 
2610.1772494564025 nanomolar

>  <smiles>  (9) 
C=CCN1CCC(OC2=CC(C=CC(=O)OC)=CC=C2OC)C1=O

>  <origin>  (9) 
x0528_elab_p2_p3.sdf

>  <ref_pdb>  (9) 
x0528

>  <butcher #BAD>  (9) 
11

>  <butcher #GOOD>  (9) 
13

>  <butcher #protein clash>  (9) 
6

>  <butcher #solvent space>  (9) 
5

>  <butcher #pocket>  (9) 
13

>  <butcher #P1>  (9) 
9

>  <butcher #P2>  (9) 
1

>  <butcher #P1'>  (9) 
3

>  <butcher #P2'>  (9) 
0

>  <butcher #P3>  (9) 
0

>  <butcher #P4>  (9) 
0

>  <butcher #P5>  (9) 
0

>  <butcher #P6>  (9) 
0

>  <ref_mols>  (9) 
A71x0528a,A71x0556a

$$$$
Z2614219026
     RDKit          3D

 25 27  0  0  0  0  0  0  0  0999 V2000
    9.8957   15.3720   20.9972 O   0  0  0  0  0  0  0  0  0  0  0  0
   10.8424   15.1116   21.7074 C   0  0  0  0  0  0  0  0  0  0  0  0
   10.8372   14.5676   23.1274 C   0  0  1  0  0  0  0  0  0  0  0  0
    9.5938   13.9997   23.4257 O   0  0  0  0  0  0  0  0  0  0  0  0
    9.3614   12.7302   23.8538 C   0  0  0  0  0  0  0  0  0  0  0  0
    8.2931   12.5999   24.7460 C   0  0  0  0  0  0  0  0  0  0  0  0
    7.9117   11.3409   25.1804 C   0  0  0  0  0  0  0  0  0  0  0  0
    6.7408   11.1953   26.1107 C   0  0  0  0  0  0  0  0  0  0  0  0
    7.1208   11.0553   27.3942 F   0  0  0  0  0  0  0  0  0  0  0  0
    6.0045   10.1094   25.8078 F   0  0  0  0  0  0  0  0  0  0  0  0
    5.9232   12.2628   26.0597 F   0  0  0  0  0  0  0  0  0  0  0  0
    8.5987   10.2050   24.7486 C   0  0  0  0  0  0  0  0  0  0  0  0
    9.6384   10.3415   23.8340 C   0  0  0  0  0  0  0  0  0  0  0  0
   10.3829    9.1771   23.2360 C   0  0  0  0  0  0  0  0  0  0  0  0
   10.2003    9.1203   21.8249 O   0  0  0  0  0  0  0  0  0  0  0  0
    9.9878   11.6011   23.3500 C   0  0  0  0  0  0  0  0  0  0  0  0
   12.2026   13.8674   23.2121 C   0  0  0  0  0  0  0  0  0  0  0  0
   13.0705   14.8595   22.4117 C   0  0  0  0  0  0  0  0  0  0  0  0
   12.1583   15.3915   21.4012 N   0  0  0  0  0  0  0  0  0  0  0  0
   12.3371   16.6075   20.6087 C   0  0  0  0  0  0  0  0  0  0  0  0
   13.7594   16.9687   20.1885 C   0  0  0  0  0  0  0  0  0  0  0  0
   14.6333   17.3971   21.3618 C   0  0  0  0  0  0  0  0  0  0  0  0
   14.0024   18.4023   22.1154 O   0  0  0  0  0  0  0  0  0  0  0  0
   12.7033   18.1194   22.5570 C   0  0  0  0  0  0  0  0  0  0  0  0
   11.7750   17.8076   21.3751 C   0  0  0  0  0  0  0  0  0  0  0  0
  1  2  2  0
  2  3  1  0
  3  4  1  6
  4  5  1  0
  5  6  2  0
  6  7  1  0
  7  8  1  0
  8  9  1  0
  8 10  1  0
  8 11  1  0
  7 12  2  0
 12 13  1  0
 13 14  1  0
 14 15  1  0
 13 16  2  0
  3 17  1  0
 17 18  1  0
 18 19  1  0
 19 20  1  0
 20 21  1  0
 21 22  1  0
 22 23  1  0
 23 24  1  0
 24 25  1  0
 19  2  1  0
 25 20  1  0
 16  5  1  0
M  END
>  <cnnaffinity>  (10) 
-5.56344

>  <cnnaffinityIC50>  (10) 
2732.498926479996 nanomolar

>  <smiles>  (10) 
O=C1C(OC2=CC(C(F)(F)F)=CC(CO)=C2)CCN1C1CCOCC1

>  <origin>  (10) 
x0528_elab_p2_p3.sdf

>  <ref_pdb>  (10) 
x0528

>  <butcher #BAD>  (10) 
7

>  <butcher #GOOD>  (10) 
18

>  <butcher #protein clash>  (10) 
7

>  <butcher #solvent space>  (10) 
0

>  <butcher #pocket>  (10) 
18

>  <butcher #P1>  (10) 
12

>  <butcher #P2>  (10) 
2

>  <butcher #P1'>  (10) 
4

>  <butcher #P2'>  (10) 
0

>  <butcher #P3>  (10) 
0

>  <butcher #P4>  (10) 
0

>  <butcher #P5>  (10) 
0

>  <butcher #P6>  (10) 
0

>  <ref_mols>  (10) 
A71x0528a,A71x0556a

$$$$
PV-006372492578
     RDKit          3D

 22 23  0  0  0  0  0  0  0  0999 V2000
   10.5336    8.1346   23.5116 N   0  0  0  0  0  0  0  0  0  0  0  0
   10.2576    9.3379   22.9232 C   0  0  0  0  0  0  0  0  0  0  0  0
   10.6694    9.4501   21.7800 O   0  0  0  0  0  0  0  0  0  0  0  0
    9.6295   10.4657   23.6471 C   0  0  0  0  0  0  0  0  0  0  0  0
    8.6526   10.2892   24.6500 C   0  0  0  0  0  0  0  0  0  0  0  0
    8.0484   11.3986   25.2570 C   0  0  0  0  0  0  0  0  0  0  0  0
    6.6625   11.1326   26.5484 Br  0  0  0  0  0  0  0  0  0  0  0  0
    8.4393   12.6961   24.8950 C   0  0  0  0  0  0  0  0  0  0  0  0
    9.4258   12.9060   23.9254 C   0  0  0  0  0  0  0  0  0  0  0  0
    9.7863   14.1921   23.5731 O   0  0  0  0  0  0  0  0  0  0  0  0
   10.8038   14.3068   22.5424 C   0  0  2  0  0  0  0  0  0  0  0  0
   12.2235   14.1339   23.1214 C   0  0  0  0  0  0  0  0  0  0  0  0
   13.0787   15.3184   22.6227 C   0  0  0  0  0  0  0  0  0  0  0  0
   12.2160   16.0725   21.7217 N   0  0  0  0  0  0  0  0  0  0  0  0
   12.6878   17.1972   20.8736 C   0  0  0  0  0  0  0  0  0  0  0  0
   13.0999   16.9057   19.3969 C   0  0  0  0  0  0  0  0  0  0  0  0
   14.4446   16.7645   19.2705 F   0  0  0  0  0  0  0  0  0  0  0  0
   12.7426   17.9680   18.6217 F   0  0  0  0  0  0  0  0  0  0  0  0
   12.4830   15.7976   18.9081 F   0  0  0  0  0  0  0  0  0  0  0  0
   10.8985   15.6449   21.8105 C   0  0  0  0  0  0  0  0  0  0  0  0
   10.0011   16.1930   21.1731 O   0  0  0  0  0  0  0  0  0  0  0  0
    9.9980   11.7820   23.3143 C   0  0  0  0  0  0  0  0  0  0  0  0
  1  2  1  0
  2  3  2  0
  2  4  1  0
  4  5  2  0
  5  6  1  0
  6  7  1  0
  6  8  2  0
  8  9  1  0
  9 10  1  0
 11 10  1  1
 11 12  1  0
 12 13  1  0
 13 14  1  0
 14 15  1  0
 15 16  1  0
 16 17  1  0
 16 18  1  0
 16 19  1  0
 14 20  1  0
 20 21  2  0
  9 22  2  0
 22  4  1  0
 20 11  1  0
M  END
>  <cnnaffinity>  (11) 
-5.56189

>  <cnnaffinityIC50>  (11) 
2742.2686577355244 nanomolar

>  <smiles>  (11) 
NC(=O)C1=CC(Br)=CC(OC2CCN(CC(F)(F)F)C2=O)=C1

>  <origin>  (11) 
x0528_elab_p2_p3.sdf

>  <ref_pdb>  (11) 
x0528

>  <butcher #BAD>  (11) 
8

>  <butcher #GOOD>  (11) 
14

>  <butcher #protein clash>  (11) 
8

>  <butcher #solvent space>  (11) 
0

>  <butcher #pocket>  (11) 
14

>  <butcher #P1>  (11) 
10

>  <butcher #P2>  (11) 
2

>  <butcher #P1'>  (11) 
2

>  <butcher #P2'>  (11) 
0

>  <butcher #P3>  (11) 
0

>  <butcher #P4>  (11) 
0

>  <butcher #P5>  (11) 
0

>  <butcher #P6>  (11) 
0

>  <ref_mols>  (11) 
A71x0528a,A71x0556a

$$$$
Z2294151499
     RDKit          3D

 25 26  0  0  0  0  0  0  0  0999 V2000
    6.1322   13.3383   31.9147 C   0  0  0  0  0  0  0  0  0  0  0  0
    6.2660   12.0304   31.7113 C   0  0  0  0  0  0  0  0  0  0  0  0
    7.2009   11.3930   30.6997 C   0  0  0  0  0  0  0  0  0  0  0  0
    8.0546   10.3272   31.4137 C   0  0  0  0  0  0  0  0  0  0  0  0
    8.1221   12.4501   30.0749 C   0  0  0  0  0  0  0  0  0  0  0  0
    6.3138   10.7177   29.6186 C   0  0  0  0  0  0  0  0  0  0  0  0
    7.0302   10.2771   28.4315 N   0  0  0  0  0  0  0  0  0  0  0  0
    6.8165   10.9300   27.2387 C   0  0  0  0  0  0  0  0  0  0  0  0
    5.8845   11.7076   27.0944 O   0  0  0  0  0  0  0  0  0  0  0  0
    7.7218   10.6330   26.2316 N   0  0  0  0  0  0  0  0  0  0  0  0
    8.0521   11.4954   25.1535 C   0  0  0  0  0  0  0  0  0  0  0  0
    7.4473   12.7443   24.9878 C   0  0  0  0  0  0  0  0  0  0  0  0
    7.9597   13.6491   24.0774 C   0  0  0  0  0  0  0  0  0  0  0  0
    9.0842   13.3202   23.3172 C   0  0  0  0  0  0  0  0  0  0  0  0
    9.5601   14.3062   22.5054 O   0  0  0  0  0  0  0  0  0  0  0  0
   10.8584   14.1854   21.9506 C   0  0  2  0  0  0  0  0  0  0  0  0
   12.0292   14.1184   22.9506 C   0  0  0  0  0  0  0  0  0  0  0  0
   13.0558   15.1642   22.4674 C   0  0  0  0  0  0  0  0  0  0  0  0
   12.3489   15.9325   21.4612 N   0  0  0  0  0  0  0  0  0  0  0  0
   12.8533   17.1788   20.9458 C   0  0  0  0  0  0  0  0  0  0  0  0
   11.1018   15.4752   21.1684 C   0  0  0  0  0  0  0  0  0  0  0  0
   10.3111   15.9975   20.4103 O   0  0  0  0  0  0  0  0  0  0  0  0
    9.5946   12.0291   23.3850 C   0  0  0  0  0  0  0  0  0  0  0  0
    9.0422   11.0853   24.2497 C   0  0  0  0  0  0  0  0  0  0  0  0
    9.5515    9.6692   24.1581 C   0  0  0  0  0  0  0  0  0  0  0  0
  1  2  2  0
  2  3  1  0
  3  4  1  0
  3  5  1  0
  3  6  1  0
  6  7  1  0
  7  8  1  0
  8  9  2  0
  8 10  1  0
 10 11  1  0
 11 12  2  0
 12 13  1  0
 13 14  2  0
 14 15  1  0
 16 15  1  1
 16 17  1  0
 17 18  1  0
 18 19  1  0
 19 20  1  0
 19 21  1  0
 21 22  2  0
 14 23  1  0
 23 24  2  0
 24 25  1  0
 24 11  1  0
 21 16  1  0
M  END
>  <cnnaffinity>  (12) 
-5.55848

>  <cnnaffinityIC50>  (12) 
2763.8851978567473 nanomolar

>  <smiles>  (12) 
C=CC(C)(C)CNC(=O)NC1=CC=C(OC2CCN(C)C2=O)C=C1C

>  <origin>  (12) 
x0528_elab_p2_p3.sdf

>  <ref_pdb>  (12) 
x0528

>  <butcher #BAD>  (12) 
9

>  <butcher #GOOD>  (12) 
16

>  <butcher #protein clash>  (12) 
1

>  <butcher #solvent space>  (12) 
8

>  <butcher #pocket>  (12) 
16

>  <butcher #P1>  (12) 
11

>  <butcher #P2>  (12) 
3

>  <butcher #P1'>  (12) 
2

>  <butcher #P2'>  (12) 
0

>  <butcher #P3>  (12) 
0

>  <butcher #P4>  (12) 
0

>  <butcher #P5>  (12) 
0

>  <butcher #P6>  (12) 
0

>  <ref_mols>  (12) 
A71x0528a,A71x0556a

$$$$
Z1839020973
     RDKit          3D

 22 24  0  0  0  0  0  0  0  0999 V2000
    7.2954   12.3476   25.9348 C   0  0  0  0  0  0  0  0  0  0  0  0
    8.4017   12.2530   24.9167 C   0  0  0  0  0  0  0  0  0  0  0  0
    8.8862   13.4011   24.2867 C   0  0  0  0  0  0  0  0  0  0  0  0
    9.8827   13.2882   23.3203 C   0  0  0  0  0  0  0  0  0  0  0  0
   10.3110   14.4013   22.6559 O   0  0  0  0  0  0  0  0  0  0  0  0
   11.1495   14.0622   21.5391 C   0  0  2  0  0  0  0  0  0  0  0  0
   12.5886   13.8217   21.9844 C   0  0  0  0  0  0  0  0  0  0  0  0
   13.2865   15.1309   21.6461 C   0  0  0  0  0  0  0  0  0  0  0  0
   12.5559   15.6730   20.4993 N   0  0  0  0  0  0  0  0  0  0  0  0
   12.6171   17.0728   20.1413 C   0  0  0  0  0  0  0  0  0  0  0  0
   14.0385   17.5513   19.8849 C   0  0  0  0  0  0  0  0  0  0  0  0
   14.7933   17.6536   21.1934 C   0  0  0  0  0  0  0  0  0  0  0  0
   14.0723   18.4888   22.0881 O   0  0  0  0  0  0  0  0  0  0  0  0
   12.7751   18.0720   22.4831 C   0  0  0  0  0  0  0  0  0  0  0  0
   11.8781   17.8164   21.2607 C   0  0  0  0  0  0  0  0  0  0  0  0
   11.2799   15.1437   20.5166 C   0  0  0  0  0  0  0  0  0  0  0  0
   10.2886   15.5863   19.9514 O   0  0  0  0  0  0  0  0  0  0  0  0
   10.4186   12.0298   23.0099 C   0  0  0  0  0  0  0  0  0  0  0  0
    9.9721   10.8857   23.6259 C   0  0  0  0  0  0  0  0  0  0  0  0
   10.6348    9.5834   23.2700 C   0  0  0  0  0  0  0  0  0  0  0  0
    8.9454   11.0076   24.5634 C   0  0  0  0  0  0  0  0  0  0  0  0
    8.2520    9.4634   25.3424 Br  0  0  0  0  0  0  0  0  0  0  0  0
  1  2  1  0
  2  3  2  0
  3  4  1  0
  4  5  1  0
  6  5  1  1
  6  7  1  0
  7  8  1  0
  8  9  1  0
  9 10  1  0
 10 11  1  0
 11 12  1  0
 12 13  1  0
 13 14  1  0
 14 15  1  0
  9 16  1  0
 16 17  2  0
  4 18  2  0
 18 19  1  0
 19 20  1  0
 19 21  2  0
 21 22  1  0
 21  2  1  0
 16  6  1  0
 15 10  1  0
M  END
>  <cnnaffinity>  (13) 
-5.55547

>  <cnnaffinityIC50>  (13) 
2783.1076174760374 nanomolar

>  <smiles>  (13) 
CC1=CC(OC2CCN(C3CCOCC3)C2=O)=CC(C)=C1Br

>  <origin>  (13) 
x0528_elab_p2_p3.sdf

>  <ref_pdb>  (13) 
x0528

>  <butcher #BAD>  (13) 
7

>  <butcher #GOOD>  (13) 
15

>  <butcher #protein clash>  (13) 
7

>  <butcher #solvent space>  (13) 
0

>  <butcher #pocket>  (13) 
15

>  <butcher #P1>  (13) 
10

>  <butcher #P2>  (13) 
3

>  <butcher #P1'>  (13) 
2

>  <butcher #P2'>  (13) 
0

>  <butcher #P3>  (13) 
0

>  <butcher #P4>  (13) 
0

>  <butcher #P5>  (13) 
0

>  <butcher #P6>  (13) 
0

>  <ref_mols>  (13) 
A71x0528a,A71x0556a

$$$$
Z3340437790
     RDKit          3D

 22 24  0  0  0  0  0  0  0  0999 V2000
   10.5470    9.0109   23.5028 C   0  0  0  0  0  0  0  0  0  0  0  0
    9.8323   10.2222   24.0192 C   0  0  0  0  0  0  0  0  0  0  0  0
    8.7248   10.1302   24.8635 C   0  0  0  0  0  0  0  0  0  0  0  0
    8.0485   11.2829   25.2848 C   0  0  0  0  0  0  0  0  0  0  0  0
    6.6604   11.1201   26.3405 Cl  0  0  0  0  0  0  0  0  0  0  0  0
    8.4705   12.5477   24.8349 C   0  0  0  0  0  0  0  0  0  0  0  0
    7.5289   14.1336   25.3719 Br  0  0  0  0  0  0  0  0  0  0  0  0
    9.5667   12.6456   23.9633 C   0  0  0  0  0  0  0  0  0  0  0  0
    9.9178   13.8642   23.4240 O   0  0  0  0  0  0  0  0  0  0  0  0
   10.8854   13.7949   22.3514 C   0  0  2  0  0  0  0  0  0  0  0  0
   12.3115   13.8269   22.9193 C   0  0  0  0  0  0  0  0  0  0  0  0
   13.0637   14.9251   22.1617 C   0  0  0  0  0  0  0  0  0  0  0  0
   12.1463   15.4301   21.1507 N   0  0  0  0  0  0  0  0  0  0  0  0
   12.3212   16.6992   20.4650 C   0  0  0  0  0  0  0  0  0  0  0  0
   11.7173   17.7617   21.3736 C   0  0  0  0  0  0  0  0  0  0  0  0
   12.6603   18.0315   22.5609 C   0  0  0  0  0  0  0  0  0  0  0  0
   13.9769   18.3061   22.1327 O   0  0  0  0  0  0  0  0  0  0  0  0
   14.5857   17.2849   21.3722 C   0  0  0  0  0  0  0  0  0  0  0  0
   13.7678   17.0395   20.1114 C   0  0  0  0  0  0  0  0  0  0  0  0
   10.8733   14.9407   21.3516 C   0  0  0  0  0  0  0  0  0  0  0  0
    9.8900   15.3344   20.7220 O   0  0  0  0  0  0  0  0  0  0  0  0
   10.2505   11.4773   23.6008 C   0  0  0  0  0  0  0  0  0  0  0  0
  1  2  1  0
  2  3  2  0
  3  4  1  0
  4  5  1  0
  4  6  2  0
  6  7  1  0
  6  8  1  0
  8  9  1  0
 10  9  1  1
 10 11  1  0
 11 12  1  0
 12 13  1  0
 13 14  1  0
 14 15  1  0
 15 16  1  0
 16 17  1  0
 17 18  1  0
 18 19  1  0
 13 20  1  0
 20 21  2  0
  8 22  2  0
 22  2  1  0
 20 10  1  0
 19 14  1  0
M  END
>  <cnnaffinity>  (14) 
-5.51124

>  <cnnaffinityIC50>  (14) 
3081.4845883218436 nanomolar

>  <smiles>  (14) 
CC1=CC(Cl)=C(Br)C(OC2CCN(C3CCOCC3)C2=O)=C1

>  <origin>  (14) 
x0528_elab_p2_p3.sdf

>  <ref_pdb>  (14) 
x0528

>  <butcher #BAD>  (14) 
6

>  <butcher #GOOD>  (14) 
16

>  <butcher #protein clash>  (14) 
6

>  <butcher #solvent space>  (14) 
0

>  <butcher #pocket>  (14) 
16

>  <butcher #P1>  (14) 
11

>  <butcher #P2>  (14) 
3

>  <butcher #P1'>  (14) 
2

>  <butcher #P2'>  (14) 
0

>  <butcher #P3>  (14) 
0

>  <butcher #P4>  (14) 
0

>  <butcher #P5>  (14) 
0

>  <butcher #P6>  (14) 
0

>  <ref_mols>  (14) 
A71x0528a,A71x0556a

$$$$
Z5026145729
     RDKit          3D

 21 23  0  0  0  0  0  0  0  0999 V2000
   10.0836    9.1700   21.9098 N   0  0  0  0  0  0  0  0  0  0  0  0
   10.4498    9.6452   23.1391 C   0  0  0  0  0  0  0  0  0  0  0  0
   11.4924    9.2128   23.5885 O   0  0  0  0  0  0  0  0  0  0  0  0
    9.6762   10.7293   23.7552 C   0  0  0  0  0  0  0  0  0  0  0  0
    8.6184   10.4980   24.6559 C   0  0  0  0  0  0  0  0  0  0  0  0
    7.8104   11.5615   25.0845 C   0  0  0  0  0  0  0  0  0  0  0  0
    6.3176   11.2074   26.2211 Br  0  0  0  0  0  0  0  0  0  0  0  0
    8.0572   12.8662   24.6329 C   0  0  0  0  0  0  0  0  0  0  0  0
    9.1172   13.1194   23.7592 C   0  0  0  0  0  0  0  0  0  0  0  0
    9.3148   14.3955   23.2818 O   0  0  0  0  0  0  0  0  0  0  0  0
   10.4944   14.5584   22.4623 C   0  0  2  0  0  0  0  0  0  0  0  0
   11.7512   14.4570   23.3408 C   0  0  0  0  0  0  0  0  0  0  0  0
   12.7530   15.4731   22.7850 C   0  0  0  0  0  0  0  0  0  0  0  0
   11.9671   16.3460   21.9270 N   0  0  0  0  0  0  0  0  0  0  0  0
   12.5268   17.4056   21.1121 C   0  0  0  0  0  0  0  0  0  0  0  0
   12.6224   17.1575   19.6105 C   0  0  0  0  0  0  0  0  0  0  0  0
   14.1200   17.4210   19.6309 C   0  0  0  0  0  0  0  0  0  0  0  0
   14.0495   17.5647   21.1467 C   0  0  0  0  0  0  0  0  0  0  0  0
   10.6756   15.8995   21.7615 C   0  0  0  0  0  0  0  0  0  0  0  0
    9.8876   16.4163   20.9704 O   0  0  0  0  0  0  0  0  0  0  0  0
    9.9242   12.0472   23.3509 C   0  0  0  0  0  0  0  0  0  0  0  0
  1  2  1  0
  2  3  2  0
  2  4  1  0
  4  5  2  0
  5  6  1  0
  6  7  1  0
  6  8  2  0
  8  9  1  0
  9 10  1  0
 11 10  1  1
 11 12  1  0
 12 13  1  0
 13 14  1  0
 14 15  1  0
 15 16  1  0
 16 17  1  0
 17 18  1  0
 14 19  1  0
 19 20  2  0
  9 21  2  0
 21  4  1  0
 19 11  1  0
 18 15  1  0
M  END
>  <cnnaffinity>  (15) 
-5.50758

>  <cnnaffinityIC50>  (15) 
3107.56341567737 nanomolar

>  <smiles>  (15) 
NC(=O)C1=CC(Br)=CC(OC2CCN(C3CCC3)C2=O)=C1

>  <origin>  (15) 
x0528_elab_p2_p3.sdf

>  <ref_pdb>  (15) 
x0528

>  <butcher #BAD>  (15) 
8

>  <butcher #GOOD>  (15) 
13

>  <butcher #protein clash>  (15) 
8

>  <butcher #solvent space>  (15) 
0

>  <butcher #pocket>  (15) 
13

>  <butcher #P1>  (15) 
10

>  <butcher #P2>  (15) 
1

>  <butcher #P1'>  (15) 
2

>  <butcher #P2'>  (15) 
0

>  <butcher #P3>  (15) 
0

>  <butcher #P4>  (15) 
0

>  <butcher #P5>  (15) 
0

>  <butcher #P6>  (15) 
0

>  <ref_mols>  (15) 
A71x0528a,A71x0556a

$$$$
Z1329188578
     RDKit          3D

 22 24  0  0  0  0  0  0  0  0999 V2000
    7.1930   12.0442   25.7563 C   0  0  0  0  0  0  0  0  0  0  0  0
    8.3487   11.9397   24.7992 C   0  0  0  0  0  0  0  0  0  0  0  0
    8.8772   13.0718   24.1949 C   0  0  0  0  0  0  0  0  0  0  0  0
    9.9669   12.9501   23.3409 C   0  0  0  0  0  0  0  0  0  0  0  0
   10.4567   14.0937   22.7730 O   0  0  0  0  0  0  0  0  0  0  0  0
   11.2882   13.7993   21.6623 C   0  0  2  0  0  0  0  0  0  0  0  0
   12.7515   13.6172   22.0591 C   0  0  0  0  0  0  0  0  0  0  0  0
   13.3457   15.0025   21.8098 C   0  0  0  0  0  0  0  0  0  0  0  0
   12.5578   15.5164   20.6885 N   0  0  0  0  0  0  0  0  0  0  0  0
   12.5753   16.9280   20.3222 C   0  0  0  0  0  0  0  0  0  0  0  0
   13.9650   17.4725   20.0208 C   0  0  0  0  0  0  0  0  0  0  0  0
   14.7572   17.7580   21.2824 C   0  0  0  0  0  0  0  0  0  0  0  0
   14.0351   18.5774   22.1647 O   0  0  0  0  0  0  0  0  0  0  0  0
   12.7707   18.1323   22.5705 C   0  0  0  0  0  0  0  0  0  0  0  0
   11.8572   17.7802   21.3830 C   0  0  0  0  0  0  0  0  0  0  0  0
   11.2994   14.9576   20.6930 C   0  0  0  0  0  0  0  0  0  0  0  0
   10.3483   15.3496   20.0456 O   0  0  0  0  0  0  0  0  0  0  0  0
   10.5073   11.6953   23.0526 C   0  0  0  0  0  0  0  0  0  0  0  0
    9.9482   10.5351   23.5594 C   0  0  0  0  0  0  0  0  0  0  0  0
   10.4429    9.1982   23.0687 C   0  0  0  0  0  0  0  0  0  0  0  0
    8.9078   10.7035   24.4641 C   0  0  0  0  0  0  0  0  0  0  0  0
    8.2750    9.2957   25.2139 Cl  0  0  0  0  0  0  0  0  0  0  0  0
  1  2  1  0
  2  3  2  0
  3  4  1  0
  4  5  1  0
  6  5  1  1
  6  7  1  0
  7  8  1  0
  8  9  1  0
  9 10  1  0
 10 11  1  0
 11 12  1  0
 12 13  1  0
 13 14  1  0
 14 15  1  0
  9 16  1  0
 16 17  2  0
  4 18  2  0
 18 19  1  0
 19 20  1  0
 19 21  2  0
 21 22  1  0
 21  2  1  0
 16  6  1  0
 15 10  1  0
M  END
>  <cnnaffinity>  (16) 
-5.50561

>  <cnnaffinityIC50>  (16) 
3121.6916304144843 nanomolar

>  <smiles>  (16) 
CC1=CC(OC2CCN(C3CCOCC3)C2=O)=CC(C)=C1Cl

>  <origin>  (16) 
x0528_elab_p2_p3.sdf

>  <ref_pdb>  (16) 
x0528

>  <butcher #BAD>  (16) 
7

>  <butcher #GOOD>  (16) 
15

>  <butcher #protein clash>  (16) 
7

>  <butcher #solvent space>  (16) 
0

>  <butcher #pocket>  (16) 
15

>  <butcher #P1>  (16) 
10

>  <butcher #P2>  (16) 
3

>  <butcher #P1'>  (16) 
2

>  <butcher #P2'>  (16) 
0

>  <butcher #P3>  (16) 
0

>  <butcher #P4>  (16) 
0

>  <butcher #P5>  (16) 
0

>  <butcher #P6>  (16) 
0

>  <ref_mols>  (16) 
A71x0528a,A71x0556a

$$$$
Z5026145409
     RDKit          3D

 20 22  0  0  0  0  0  0  0  0999 V2000
   11.2355    8.2516   23.2723 N   0  0  0  0  0  0  0  0  0  0  0  0
   10.6078    9.2600   22.5954 C   0  0  0  0  0  0  0  0  0  0  0  0
   10.8071    9.3239   21.3932 O   0  0  0  0  0  0  0  0  0  0  0  0
    9.8700   10.3056   23.3032 C   0  0  0  0  0  0  0  0  0  0  0  0
    8.9620   10.0112   24.3361 C   0  0  0  0  0  0  0  0  0  0  0  0
    8.2552   11.0419   24.9666 C   0  0  0  0  0  0  0  0  0  0  0  0
    6.9738   10.6269   26.3273 Br  0  0  0  0  0  0  0  0  0  0  0  0
    8.4743   12.3736   24.5840 C   0  0  0  0  0  0  0  0  0  0  0  0
    9.3821   12.6964   23.5675 C   0  0  0  0  0  0  0  0  0  0  0  0
    9.5977   14.0121   23.2065 O   0  0  0  0  0  0  0  0  0  0  0  0
   10.7358   14.2158   22.3285 C   0  0  2  0  0  0  0  0  0  0  0  0
   12.0431   14.0275   23.1142 C   0  0  0  0  0  0  0  0  0  0  0  0
   13.0795   14.8994   22.3947 C   0  0  0  0  0  0  0  0  0  0  0  0
   12.3013   15.8751   21.6429 N   0  0  0  0  0  0  0  0  0  0  0  0
   12.8625   16.5447   20.4820 C   0  0  0  0  0  0  0  0  0  0  0  0
   12.2912   17.9179   20.1682 C   0  0  0  0  0  0  0  0  0  0  0  0
   13.6993   17.7820   20.7409 C   0  0  0  0  0  0  0  0  0  0  0  0
   10.9500   15.5822   21.6712 C   0  0  0  0  0  0  0  0  0  0  0  0
   10.1148   16.2093   21.0204 O   0  0  0  0  0  0  0  0  0  0  0  0
   10.0616   11.6452   22.9388 C   0  0  0  0  0  0  0  0  0  0  0  0
  1  2  1  0
  2  3  2  0
  2  4  1  0
  4  5  2  0
  5  6  1  0
  6  7  1  0
  6  8  2  0
  8  9  1  0
  9 10  1  0
 11 10  1  1
 11 12  1  0
 12 13  1  0
 13 14  1  0
 14 15  1  0
 15 16  1  0
 16 17  1  0
 14 18  1  0
 18 19  2  0
  9 20  2  0
 20  4  1  0
 18 11  1  0
 17 15  1  0
M  END
>  <cnnaffinity>  (17) 
-5.48726

>  <cnnaffinityIC50>  (17) 
3256.4169003172497 nanomolar

>  <smiles>  (17) 
NC(=O)C1=CC(Br)=CC(OC2CCN(C3CC3)C2=O)=C1

>  <origin>  (17) 
x0528_elab_p2_p3.sdf

>  <ref_pdb>  (17) 
x0528

>  <butcher #BAD>  (17) 
6

>  <butcher #GOOD>  (17) 
14

>  <butcher #protein clash>  (17) 
6

>  <butcher #solvent space>  (17) 
0

>  <butcher #pocket>  (17) 
14

>  <butcher #P1>  (17) 
10

>  <butcher #P2>  (17) 
1

>  <butcher #P1'>  (17) 
3

>  <butcher #P2'>  (17) 
0

>  <butcher #P3>  (17) 
0

>  <butcher #P4>  (17) 
0

>  <butcher #P5>  (17) 
0

>  <butcher #P6>  (17) 
0

>  <ref_mols>  (17) 
A71x0528a,A71x0556a

$$$$
Z1987720584
     RDKit          3D

 27 29  0  0  0  0  0  0  0  0999 V2000
    5.7985   13.1563   25.4334 C   0  0  0  0  0  0  0  0  0  0  0  0
    7.2323   12.8540   25.0541 C   0  0  0  0  0  0  0  0  0  0  0  0
    8.0174   13.8773   24.5276 C   0  0  0  0  0  0  0  0  0  0  0  0
    9.3112   13.6458   24.0550 C   0  0  0  0  0  0  0  0  0  0  0  0
    9.9567   14.7320   23.5327 O   0  0  0  0  0  0  0  0  0  0  0  0
   11.0494   14.5401   22.6507 C   0  0  2  0  0  0  0  0  0  0  0  0
   12.4230   14.4909   23.3357 C   0  0  0  0  0  0  0  0  0  0  0  0
   13.3469   15.3122   22.4195 C   0  0  0  0  0  0  0  0  0  0  0  0
   12.4277   16.2168   21.7485 N   0  0  0  0  0  0  0  0  0  0  0  0
   12.8401   17.2081   20.7886 C   0  0  0  0  0  0  0  0  0  0  0  0
   11.1378   15.7740   21.7481 C   0  0  0  0  0  0  0  0  0  0  0  0
   10.2293   16.2616   21.1063 O   0  0  0  0  0  0  0  0  0  0  0  0
    9.8597   12.3731   24.1617 C   0  0  0  0  0  0  0  0  0  0  0  0
    9.0955   11.3478   24.7162 C   0  0  0  0  0  0  0  0  0  0  0  0
    7.7918   11.5635   25.1551 C   0  0  0  0  0  0  0  0  0  0  0  0
    7.0354   10.4306   25.5848 N   0  0  0  0  0  0  0  0  0  0  0  0
    6.2462   10.1234   26.6898 C   0  0  0  0  0  0  0  0  0  0  0  0
    5.2486    9.4545   26.4866 O   0  0  0  0  0  0  0  0  0  0  0  0
    6.6572   10.5544   28.0583 C   0  0  0  0  0  0  0  0  0  0  0  0
    7.1633   11.7736   28.3266 C   0  0  0  0  0  0  0  0  0  0  0  0
    7.4534   12.1859   29.5978 N   0  0  0  0  0  0  0  0  0  0  0  0
    7.2802   11.4061   30.7223 C   0  0  0  0  0  0  0  0  0  0  0  0
    7.5179   11.8200   31.8395 O   0  0  0  0  0  0  0  0  0  0  0  0
    6.8176   10.1267   30.4589 N   0  0  0  0  0  0  0  0  0  0  0  0
    6.6696    9.2662   31.6315 C   0  0  0  0  0  0  0  0  0  0  0  0
    6.4540    9.6193   29.1869 C   0  0  0  0  0  0  0  0  0  0  0  0
    6.0074    8.4957   29.0954 O   0  0  0  0  0  0  0  0  0  0  0  0
  1  2  1  0
  2  3  2  0
  3  4  1  0
  4  5  1  0
  6  5  1  1
  6  7  1  0
  7  8  1  0
  8  9  1  0
  9 10  1  0
  9 11  1  0
 11 12  2  0
  4 13  2  0
 13 14  1  0
 14 15  2  0
 15 16  1  0
 16 17  1  0
 17 18  2  0
 17 19  1  0
 19 20  2  0
 20 21  1  0
 21 22  1  0
 22 23  2  0
 22 24  1  0
 24 25  1  0
 24 26  1  0
 26 27  2  0
 15  2  1  0
 26 19  1  0
 11  6  1  0
M  END
>  <cnnaffinity>  (18) 
-5.47537

>  <cnnaffinityIC50>  (18) 
3346.8018470932716 nanomolar

>  <smiles>  (18) 
CC1=CC(OC2CCN(C)C2=O)=CC=C1NC(=O)C1=CNC(=O)N(C)C1=O

>  <origin>  (18) 
x0528_elab_p2_p3.sdf

>  <ref_pdb>  (18) 
x0528

>  <butcher #BAD>  (18) 
14

>  <butcher #GOOD>  (18) 
13

>  <butcher #protein clash>  (18) 
2

>  <butcher #solvent space>  (18) 
12

>  <butcher #pocket>  (18) 
13

>  <butcher #P1>  (18) 
8

>  <butcher #P2>  (18) 
1

>  <butcher #P1'>  (18) 
4

>  <butcher #P2'>  (18) 
0

>  <butcher #P3>  (18) 
0

>  <butcher #P4>  (18) 
0

>  <butcher #P5>  (18) 
0

>  <butcher #P6>  (18) 
0

>  <ref_mols>  (18) 
A71x0528a,A71x0556a

$$$$
PV-005206387572
     RDKit          3D

 20 21  0  0  0  0  0  0  0  0999 V2000
   11.5025   17.8296   20.8965 C   0  0  0  0  0  0  0  0  0  0  0  0
   12.5395   17.7269   20.0714 C   0  0  0  0  0  0  0  0  0  0  0  0
   13.2161   16.4463   19.6433 C   0  0  0  0  0  0  0  0  0  0  0  0
   12.9367   15.3227   20.5004 N   0  0  0  0  0  0  0  0  0  0  0  0
   13.3559   15.2833   21.8924 C   0  0  0  0  0  0  0  0  0  0  0  0
   12.2706   14.4456   22.5897 C   0  0  0  0  0  0  0  0  0  0  0  0
   11.6609   13.6192   21.4466 C   0  0  1  0  0  0  0  0  0  0  0  0
   10.2649   13.3971   21.5359 O   0  0  0  0  0  0  0  0  0  0  0  0
    9.8374   12.5918   22.5364 C   0  0  0  0  0  0  0  0  0  0  0  0
    9.0013   13.0829   23.5406 C   0  0  0  0  0  0  0  0  0  0  0  0
    8.6475   14.7848   23.5432 Cl  0  0  0  0  0  0  0  0  0  0  0  0
    8.4341   12.2666   24.5266 C   0  0  0  0  0  0  0  0  0  0  0  0
    7.5313   12.8326   25.5872 C   0  0  0  0  0  0  0  0  0  0  0  0
    8.7562   10.9094   24.4632 C   0  0  0  0  0  0  0  0  0  0  0  0
    8.0759    9.8049   25.6079 Cl  0  0  0  0  0  0  0  0  0  0  0  0
    9.6005   10.3801   23.4971 C   0  0  0  0  0  0  0  0  0  0  0  0
   10.1134   11.2271   22.5453 C   0  0  0  0  0  0  0  0  0  0  0  0
   10.8755   10.7145   21.5671 F   0  0  0  0  0  0  0  0  0  0  0  0
   11.8839   14.4996   20.2192 C   0  0  0  0  0  0  0  0  0  0  0  0
   11.2462   14.5150   19.1890 O   0  0  0  0  0  0  0  0  0  0  0  0
  1  2  2  0
  2  3  1  0
  3  4  1  0
  4  5  1  0
  5  6  1  0
  6  7  1  0
  7  8  1  1
  8  9  1  0
  9 10  2  0
 10 11  1  0
 10 12  1  0
 12 13  1  0
 12 14  2  0
 14 15  1  0
 14 16  1  0
 16 17  2  0
 17 18  1  0
  7 19  1  0
 19 20  2  0
 19  4  1  0
 17  9  1  0
M  END
>  <cnnaffinity>  (19) 
-5.47483

>  <cnnaffinityIC50>  (19) 
3350.9658351626044 nanomolar

>  <smiles>  (19) 
C=CCN1CCC(OC2=C(Cl)C(C)=C(Cl)C=C2F)C1=O

>  <origin>  (19) 
x0528_elab_p2_p3.sdf

>  <ref_pdb>  (19) 
x0528

>  <butcher #BAD>  (19) 
7

>  <butcher #GOOD>  (19) 
13

>  <butcher #protein clash>  (19) 
6

>  <butcher #solvent space>  (19) 
1

>  <butcher #pocket>  (19) 
13

>  <butcher #P1>  (19) 
9

>  <butcher #P2>  (19) 
1

>  <butcher #P1'>  (19) 
3

>  <butcher #P2'>  (19) 
0

>  <butcher #P3>  (19) 
0

>  <butcher #P4>  (19) 
0

>  <butcher #P5>  (19) 
0

>  <butcher #P6>  (19) 
0

>  <ref_mols>  (19) 
A71x0528a,A71x0556a

$$$$
Z3340253511
     RDKit          3D

 22 24  0  0  0  0  0  0  0  0999 V2000
   10.7098    7.9389   23.3658 N   0  0  0  0  0  0  0  0  0  0  0  0
   10.1182    8.8731   23.7090 C   0  0  0  0  0  0  0  0  0  0  0  0
    9.3977   10.0691   24.0440 C   0  0  0  0  0  0  0  0  0  0  0  0
    8.3722   10.1078   24.9799 C   0  0  0  0  0  0  0  0  0  0  0  0
    7.7545   11.3260   25.2530 C   0  0  0  0  0  0  0  0  0  0  0  0
    8.1419   12.4635   24.5682 C   0  0  0  0  0  0  0  0  0  0  0  0
    7.5582   13.6390   24.8398 F   0  0  0  0  0  0  0  0  0  0  0  0
    9.1337   12.4249   23.5831 C   0  0  0  0  0  0  0  0  0  0  0  0
    9.3851   13.5640   22.8859 O   0  0  0  0  0  0  0  0  0  0  0  0
   10.5379   13.4709   22.0760 C   0  0  2  0  0  0  0  0  0  0  0  0
   11.8508   13.5655   22.8608 C   0  0  0  0  0  0  0  0  0  0  0  0
   12.8099   14.1701   21.8336 C   0  0  0  0  0  0  0  0  0  0  0  0
   11.9268   14.9795   21.0115 N   0  0  0  0  0  0  0  0  0  0  0  0
   12.3497   16.0583   20.1524 C   0  0  0  0  0  0  0  0  0  0  0  0
   12.9354   15.6102   18.7912 C   0  0  0  0  0  0  0  0  0  0  0  0
   14.1387   16.4750   18.3713 C   0  0  0  0  0  0  0  0  0  0  0  0
   13.9162   17.9696   18.5896 C   0  0  0  0  0  0  0  0  0  0  0  0
   13.4524   18.2477   20.0312 C   0  0  0  0  0  0  0  0  0  0  0  0
   13.3283   16.9788   20.8606 C   0  0  0  0  0  0  0  0  0  0  0  0
   10.6193   14.6099   21.0695 C   0  0  0  0  0  0  0  0  0  0  0  0
    9.7155   15.0637   20.3938 O   0  0  0  0  0  0  0  0  0  0  0  0
    9.7731   11.2141   23.3547 C   0  0  0  0  0  0  0  0  0  0  0  0
  1  2  3  0
  2  3  1  0
  3  4  2  0
  4  5  1  0
  5  6  2  0
  6  7  1  0
  6  8  1  0
  8  9  1  0
 10  9  1  1
 10 11  1  0
 11 12  1  0
 12 13  1  0
 13 14  1  0
 14 15  1  0
 15 16  1  0
 16 17  1  0
 17 18  1  0
 18 19  1  0
 13 20  1  0
 20 21  2  0
  8 22  2  0
 22  3  1  0
 20 10  1  0
 19 14  1  0
M  END
>  <cnnaffinity>  (20) 
-5.47471

>  <cnnaffinityIC50>  (20) 
3351.8918691705394 nanomolar

>  <smiles>  (20) 
N#CC1=CC=C(F)C(OC2CCN(C3CCCCC3)C2=O)=C1

>  <origin>  (20) 
x0528_elab_p2_p3.sdf

>  <ref_pdb>  (20) 
x0528

>  <butcher #BAD>  (20) 
8

>  <butcher #GOOD>  (20) 
14

>  <butcher #protein clash>  (20) 
8

>  <butcher #solvent space>  (20) 
0

>  <butcher #pocket>  (20) 
14

>  <butcher #P1>  (20) 
9

>  <butcher #P2>  (20) 
3

>  <butcher #P1'>  (20) 
2

>  <butcher #P2'>  (20) 
0

>  <butcher #P3>  (20) 
0

>  <butcher #P4>  (20) 
0

>  <butcher #P5>  (20) 
0

>  <butcher #P6>  (20) 
0

>  <ref_mols>  (20) 
A71x0528a,A71x0556a

$$$$
