ver_1.2
     RDKit          3D

 14 15  0  0  0  0  0  0  0  0999 V2000
    3.1786    0.9693   -0.1157 C   0  0  0  0  0  0  0  0  0  0  0  0
    2.2208   -0.0994    0.0174 N   0  0  0  0  0  0  0  0  0  0  0  0
    2.4457   -1.4251    0.1856 C   0  0  0  0  0  0  0  0  0  0  0  0
    1.2318   -1.9972    0.2554 N   0  0  0  0  0  0  0  0  0  0  0  0
    0.2576   -1.1015    0.1399 C   0  0  0  0  0  0  0  0  0  0  0  0
    0.8813    0.1213   -0.0134 C   0  0  0  0  0  0  0  0  0  0  0  0
    0.1097    1.2710   -0.1606 C   0  0  0  0  0  0  0  0  0  0  0  0
    0.6472    2.3974   -0.3019 O   0  0  0  0  0  0  0  0  0  0  0  0
   -1.2321    1.2059   -0.1553 N   0  0  0  0  0  0  0  0  0  0  0  0
   -1.8038   -0.0090   -0.0028 C   0  0  0  0  0  0  0  0  0  0  0  0
   -3.0570   -0.1303    0.0098 O   0  0  0  0  0  0  0  0  0  0  0  0
   -1.0899   -1.1403    0.1419 N   0  0  0  0  0  0  0  0  0  0  0  0
   -1.7090   -2.4416    0.3052 C   0  0  0  0  0  0  0  0  0  0  0  0
   -2.0809    2.3793   -0.3056 C   0  0  0  0  0  0  0  0  0  0  0  0
  1  2  1  0
  2  3  1  0
  3  4  2  0
  4  5  1  0
  5  6  2  0
  6  7  1  0
  7  8  2  0
  7  9  1  0
  9 10  1  0
 10 11  2  0
 10 12  1  0
 12 13  1  0
  9 14  1  0
  6  2  1  0
 12  5  1  0
M  END
>  <ref_url>  (1) 
https://github.com/matteoferla/Fragmenstein

>  <submitter_name>  (1) 
Max Winokan

>  <submitter_email>  (1) 
max.winokan@diamond.ac.uk

>  <submitter_institution>  (1) 
DLS

>  <generation_date>  (1) 
2024-02-07

>  <method>  (1) 
Fragmenstein

>  <ddG>  (1) 
ddG

>  <score>  (1) 
score

>  <ref_mols>  (1) 
inspiration observation shortnames

>  <original SMILES>  (1) 
nan

>  <ref_pdb>  (1) 
LHS reference observation

>  <butcher #BAD>  (1) 
14

>  <butcher #GOOD>  (1) 
0

>  <butcher #protein clash>  (1) 
2

>  <butcher #solvent space>  (1) 
12

>  <butcher #pocket>  (1) 
0

>  <butcher #P1>  (1) 
0

>  <butcher #P2>  (1) 
0

>  <butcher #P1'>  (1) 
0

>  <butcher #P2'>  (1) 
0

>  <butcher #P3>  (1) 
0

>  <butcher #P4>  (1) 
0

>  <butcher #P5>  (1) 
0

>  <butcher #P6>  (1) 
0

$$$$
Z3621038789
     RDKit          3D

 16 16  0  0  0  0  0  0  0  0999 V2000
   -1.1160   12.5070   15.5620 C   0  0  0  0  0  0  0  0  0  0  0  0
   -0.3900   12.6030   16.8940 C   0  0  0  0  0  0  0  0  0  0  0  0
   -1.1150   13.4830   17.9220 C   0  0  0  0  0  0  0  0  0  0  0  0
   -0.1810   14.2920   18.7170 N   0  0  0  0  0  0  0  0  0  0  0  0
   -0.3630   15.7460   18.6730 C   0  0  0  0  0  0  0  0  0  0  0  0
    0.5830   13.5950   20.0230 S   0  0  0  0  0  6  0  0  0  0  0  0
   -0.4230   12.9030   20.8070 O   0  0  0  0  0  0  0  0  0  0  0  0
    1.5310   14.5410   20.5810 O   0  0  0  0  0  0  0  0  0  0  0  0
    1.5270   12.4670   19.2660 N   0  0  0  0  0  0  0  0  0  0  0  0
    2.3950   13.0400   18.2320 C   0  0  0  0  0  0  0  0  0  0  0  0
    3.2090   11.9790   17.5610 C   0  0  0  0  0  0  0  0  0  0  0  0
    4.0080   11.2030   18.4650 O   0  0  0  0  0  0  0  0  0  0  0  0
    3.1770   10.6480   19.4640 C   0  0  0  0  0  0  0  0  0  0  0  0
    2.3740   11.7250   20.2060 C   0  0  1  0  0  0  0  0  0  0  0  0
    3.3000   12.8170   20.7100 C   0  0  0  0  0  0  0  0  0  0  0  0
    4.6790   12.5430   20.5980 O   0  0  0  0  0  0  0  0  0  0  0  0
  1  2  1  0
  2  3  1  0
  3  4  1  0
  4  5  1  0
  4  6  1  0
  6  7  2  0
  6  8  2  0
  6  9  1  0
  9 10  1  0
 10 11  1  0
 11 12  1  0
 12 13  1  0
 13 14  1  0
 14 15  1  6
 15 16  1  0
 14  9  1  0
A    1
 C1 
A    2
 C2 
A    3
 C3 
A    4
 N1 
A    5
 C4 
A    6
 S1 
A    7
 O1 
A    8
 O2 
A    9
 N2 
A   10
 C5 
A   11
 C6 
A   12
 O3 
A   13
 C7 
A   14
 C8 
A   15
 C9 
A   16
 O4 
M  END
>  <ref_url>  (2) 
nan

>  <submitter_name>  (2) 
nan

>  <submitter_email>  (2) 
nan

>  <submitter_institution>  (2) 
nan

>  <generation_date>  (2) 
nan

>  <method>  (2) 
nan

>  <ddG>  (2) 
-6.353283

>  <score>  (2) 
10.300328

>  <ref_mols>  (2) 
A71x0473a

>  <original SMILES>  (2) 
CCCN(C)S(=O)(=O)N1CCOC[C@H]1CO

>  <ref_pdb>  (2) 
A71x0310a

>  <butcher #BAD>  (2) 
1

>  <butcher #GOOD>  (2) 
15

>  <butcher #protein clash>  (2) 
0

>  <butcher #solvent space>  (2) 
1

>  <butcher #pocket>  (2) 
15

>  <butcher #P1>  (2) 
0

>  <butcher #P2>  (2) 
0

>  <butcher #P1'>  (2) 
0

>  <butcher #P2'>  (2) 
0

>  <butcher #P3>  (2) 
3

>  <butcher #P4>  (2) 
2

>  <butcher #P5>  (2) 
8

>  <butcher #P6>  (2) 
2

$$$$
Z2947991424
     RDKit          3D

 15 15  0  0  0  0  0  0  0  0999 V2000
   12.3050   13.5560   24.2670 C   0  0  0  0  0  0  0  0  0  0  0  0
   11.5790   14.3660   23.2420 C   0  0  0  0  0  0  0  0  0  0  0  0
   12.1910   14.1720   21.8540 C   0  0  0  0  0  0  0  0  0  0  0  0
   10.0440   14.1050   23.3140 C   0  0  0  0  0  0  0  0  0  0  0  0
    9.4320   12.7520   23.2360 C   0  0  1  0  0  0  0  0  0  0  0  0
   10.5540   11.7720   23.1050 C   0  0  0  0  0  0  0  0  0  0  0  0
   10.1490   10.2990   23.1010 C   0  0  0  0  0  0  0  0  0  0  0  0
    8.9050    9.9860   23.9270 C   0  0  0  0  0  0  0  0  0  0  0  0
    8.1690   11.0950   24.6820 C   0  0  0  0  0  0  0  0  0  0  0  0
    8.4840   12.4940   24.3450 N   0  0  0  0  0  0  0  0  0  0  0  0
    7.2680   13.3470   24.3670 C   0  0  0  0  0  0  0  0  0  0  0  0
    6.9170   14.1600   23.1280 C   0  0  1  0  0  0  0  0  0  0  0  0
    6.4990   13.3990   21.9970 O   0  0  0  0  0  0  0  0  0  0  0  0
    5.9030   15.2770   23.4050 C   0  0  0  0  0  0  0  0  0  0  0  0
    6.3620   16.0560   24.5000 O   0  0  0  0  0  0  0  0  0  0  0  0
  1  2  1  0
  2  3  1  0
  2  4  1  0
  5  4  1  1
  5  6  1  0
  6  7  1  0
  7  8  1  0
  8  9  1  0
  9 10  1  0
 10 11  1  0
 11 12  1  0
 12 13  1  6
 12 14  1  0
 14 15  1  0
 10  5  1  0
A    1
 C1 
A    2
 C2 
A    3
 C3 
A    4
 C4 
A    5
 C5 
A    6
 C6 
A    7
 C7 
A    8
 C8 
A    9
 C9 
A   10
 N1 
A   11
 C10
A   12
 C11
A   13
 O1 
A   14
 C12
A   15
 O2 
M  END
>  <ref_url>  (3) 
nan

>  <submitter_name>  (3) 
nan

>  <submitter_email>  (3) 
nan

>  <submitter_institution>  (3) 
nan

>  <generation_date>  (3) 
nan

>  <method>  (3) 
nan

>  <ddG>  (3) 
-5.066554

>  <score>  (3) 
25.911535

>  <ref_mols>  (3) 
A71x0732a,A71x0375b

>  <original SMILES>  (3) 
CC(C)CC1CCCCN1C[C@@H](O)CO

>  <ref_pdb>  (3) 
A71x0310a

>  <butcher #BAD>  (3) 
0

>  <butcher #GOOD>  (3) 
15

>  <butcher #protein clash>  (3) 
0

>  <butcher #solvent space>  (3) 
0

>  <butcher #pocket>  (3) 
15

>  <butcher #P1>  (3) 
9

>  <butcher #P2>  (3) 
0

>  <butcher #P1'>  (3) 
3

>  <butcher #P2'>  (3) 
0

>  <butcher #P3>  (3) 
3

>  <butcher #P4>  (3) 
0

>  <butcher #P5>  (3) 
0

>  <butcher #P6>  (3) 
0

$$$$
Z3522021571
     RDKit          3D

 15 15  0  0  0  0  0  0  0  0999 V2000
   12.5390   13.5340   24.1980 C   0  0  0  0  0  0  0  0  0  0  0  0
   11.8140   14.4230   23.2160 C   0  0  0  0  0  0  0  0  0  0  0  0
   12.7460   14.7440   22.0520 C   0  0  0  0  0  0  0  0  0  0  0  0
   10.4900   13.7720   22.7210 C   0  0  0  0  0  0  0  0  0  0  0  0
    9.8060   12.7330   23.6550 C   0  0  2  0  0  0  0  0  0  0  0  0
   10.0930   11.3050   23.1880 C   0  0  0  0  0  0  0  0  0  0  0  0
    9.2390   10.1710   23.7580 C   0  0  0  0  0  0  0  0  0  0  0  0
    8.1720   10.5340   24.7980 C   0  0  0  0  0  0  0  0  0  0  0  0
    7.7410   11.9760   24.8770 C   0  0  0  0  0  0  0  0  0  0  0  0
    8.2800   12.8250   23.7500 C   0  0  1  0  0  0  0  0  0  0  0  0
    7.6630   14.1060   23.7160 N   0  0  0  0  0  0  0  0  0  0  0  0
    6.5930   14.2590   22.8700 C   0  0  0  0  0  0  0  0  0  0  0  0
    6.4200   13.5950   21.8560 O   0  0  0  0  0  0  0  0  0  0  0  0
    5.6250   15.3250   23.3460 C   0  0  0  0  0  0  0  0  0  0  0  0
    6.2110   16.0070   24.5030 N   0  0  0  0  0  0  0  0  0  0  0  0
  1  2  1  0
  2  3  1  0
  2  4  1  0
  5  4  1  6
  5  6  1  0
  6  7  1  0
  7  8  1  0
  8  9  1  0
  9 10  1  0
 10 11  1  1
 11 12  1  0
 12 13  2  0
 12 14  1  0
 14 15  1  0
 10  5  1  0
A    1
 C1 
A    2
 C2 
A    3
 C3 
A    4
 C4 
A    5
 C5 
A    6
 C6 
A    7
 C7 
A    8
 C8 
A    9
 C9 
A   10
 C10
A   11
 N1 
A   12
 C11
A   13
 O1 
A   14
 C12
A   15
 N2 
M  END
>  <ref_url>  (4) 
nan

>  <submitter_name>  (4) 
nan

>  <submitter_email>  (4) 
nan

>  <submitter_institution>  (4) 
nan

>  <generation_date>  (4) 
nan

>  <method>  (4) 
nan

>  <ddG>  (4) 
-7.63759

>  <score>  (4) 
8.900272

>  <ref_mols>  (4) 
A71x0732a,A71x0375b

>  <original SMILES>  (4) 
CC(C)CC1CCCCC1NC(=O)CN

>  <ref_pdb>  (4) 
A71x0310a

>  <butcher #BAD>  (4) 
0

>  <butcher #GOOD>  (4) 
15

>  <butcher #protein clash>  (4) 
0

>  <butcher #solvent space>  (4) 
0

>  <butcher #pocket>  (4) 
15

>  <butcher #P1>  (4) 
8

>  <butcher #P2>  (4) 
0

>  <butcher #P1'>  (4) 
3

>  <butcher #P2'>  (4) 
0

>  <butcher #P3>  (4) 
4

>  <butcher #P4>  (4) 
0

>  <butcher #P5>  (4) 
0

>  <butcher #P6>  (4) 
0

$$$$
Z1733136064
     RDKit          3D

 15 15  0  0  0  0  0  0  0  0999 V2000
   12.4080   13.7790   24.3120 C   0  0  0  0  0  0  0  0  0  0  0  0
   12.0100   13.8280   22.8490 C   0  0  0  0  0  0  0  0  0  0  0  0
   12.4750   15.1200   22.1800 C   0  0  0  0  0  0  0  0  0  0  0  0
   10.4890   13.6640   22.6460 C   0  0  0  0  0  0  0  0  0  0  0  0
    9.8240   12.5920   23.5230 C   0  0  2  0  0  0  0  0  0  0  0  0
    9.5880   11.4100   22.7580 O   0  0  0  0  0  0  0  0  0  0  0  0
    9.2920   10.2510   23.5290 C   0  0  0  0  0  0  0  0  0  0  0  0
    8.2870   10.5560   24.6400 C   0  0  0  0  0  0  0  0  0  0  0  0
    7.6360   11.9340   24.5850 C   0  0  0  0  0  0  0  0  0  0  0  0
    8.6000   13.0650   24.3450 C   0  0  2  0  0  0  0  0  0  0  0  0
    7.9170   14.2170   23.7580 N   0  0  0  0  0  0  0  0  0  0  0  0
    6.7810   14.2000   22.9590 C   0  0  0  0  0  0  0  0  0  0  0  0
    6.5730   13.4450   22.0230 O   0  0  0  0  0  0  0  0  0  0  0  0
    5.7930   15.2830   23.3920 C   0  0  0  0  0  0  0  0  0  0  0  0
    6.3690   16.0680   24.4280 O   0  0  0  0  0  0  0  0  0  0  0  0
  1  2  1  0
  2  3  1  0
  2  4  1  0
  5  4  1  6
  5  6  1  0
  6  7  1  0
  7  8  1  0
  8  9  1  0
  9 10  1  0
 10 11  1  6
 11 12  1  0
 12 13  2  0
 12 14  1  0
 14 15  1  0
 10  5  1  0
A    1
 C1 
A    2
 C2 
A    3
 C3 
A    4
 C4 
A    5
 C5 
A    6
 O1 
A    7
 C6 
A    8
 C7 
A    9
 C8 
A   10
 C9 
A   11
 N1 
A   12
 C10
A   13
 O2 
A   14
 C11
A   15
 O3 
M  END
>  <ref_url>  (5) 
nan

>  <submitter_name>  (5) 
nan

>  <submitter_email>  (5) 
nan

>  <submitter_institution>  (5) 
nan

>  <generation_date>  (5) 
nan

>  <method>  (5) 
nan

>  <ddG>  (5) 
-6.226388

>  <score>  (5) 
13.085709

>  <ref_mols>  (5) 
A71x0732a,A71x0375b

>  <original SMILES>  (5) 
CC(C)CC1OCCCC1NC(=O)CO

>  <ref_pdb>  (5) 
A71x0310a

>  <butcher #BAD>  (5) 
0

>  <butcher #GOOD>  (5) 
15

>  <butcher #protein clash>  (5) 
0

>  <butcher #solvent space>  (5) 
0

>  <butcher #pocket>  (5) 
15

>  <butcher #P1>  (5) 
10

>  <butcher #P2>  (5) 
0

>  <butcher #P1'>  (5) 
2

>  <butcher #P2'>  (5) 
0

>  <butcher #P3>  (5) 
3

>  <butcher #P4>  (5) 
0

>  <butcher #P5>  (5) 
0

>  <butcher #P6>  (5) 
0

$$$$
Z1993861820
     RDKit          3D

 15 15  0  0  0  0  0  0  0  0999 V2000
    5.6780   16.0600   23.9330 C   0  0  0  0  0  0  0  0  0  0  0  0
    5.4440   14.8200   23.1550 C   0  0  0  0  0  0  0  0  0  0  0  0
    6.7500   14.3330   22.5880 C   0  0  2  0  0  0  0  0  0  0  0  0
    6.4500   13.2940   21.6890 O   0  0  0  0  0  0  0  0  0  0  0  0
    7.7270   13.9460   23.6880 C   0  0  0  0  0  0  0  0  0  0  0  0
    8.2060   12.5690   23.6330 N   0  0  0  0  0  0  0  0  0  0  0  0
    7.6480   11.8330   24.7530 C   0  0  0  0  0  0  0  0  0  0  0  0
    8.1070   10.3850   24.8020 C   0  0  0  0  0  0  0  0  0  0  0  0
    9.1570    9.9380   23.7500 C   0  0  0  0  0  0  0  0  0  0  0  0
    9.9780   11.0550   23.1490 C   0  0  0  0  0  0  0  0  0  0  0  0
    9.5590   12.4400   23.6590 C   0  0  1  0  0  0  0  0  0  0  0  0
   10.2850   13.5170   22.8190 C   0  0  0  0  0  0  0  0  0  0  0  0
   11.7030   13.8100   23.3390 C   0  0  0  0  0  0  0  0  0  0  0  0
   12.6980   14.1140   22.4670 N   0  0  0  0  0  0  0  0  0  0  0  0
   11.8520   13.7490   24.7540 O   0  0  0  0  0  0  0  0  0  0  0  0
  1  2  1  0
  2  3  1  0
  3  4  1  6
  3  5  1  0
  5  6  1  0
  6  7  1  0
  7  8  1  0
  8  9  1  0
  9 10  1  0
 10 11  1  0
 11 12  1  6
 12 13  1  0
 13 14  1  0
 13 15  2  0
 11  6  1  0
A    1
 C1 
A    2
 C2 
A    3
 C3 
A    4
 O1 
A    5
 C4 
A    6
 N1 
A    7
 C5 
A    8
 C6 
A    9
 C7 
A   10
 C8 
A   11
 C9 
A   12
 C10
A   13
 C11
A   14
 N2 
A   15
 O2 
M  END
>  <ref_url>  (6) 
nan

>  <submitter_name>  (6) 
nan

>  <submitter_email>  (6) 
nan

>  <submitter_institution>  (6) 
nan

>  <generation_date>  (6) 
nan

>  <method>  (6) 
nan

>  <ddG>  (6) 
-5.224017

>  <score>  (6) 
-1.301327

>  <ref_mols>  (6) 
A71x0732a,A71x0375b

>  <original SMILES>  (6) 
CC[C@H](O)CN1CCCCC1CC(N)=O

>  <ref_pdb>  (6) 
A71x0310a

>  <butcher #BAD>  (6) 
0

>  <butcher #GOOD>  (6) 
15

>  <butcher #protein clash>  (6) 
0

>  <butcher #solvent space>  (6) 
0

>  <butcher #pocket>  (6) 
15

>  <butcher #P1>  (6) 
9

>  <butcher #P2>  (6) 
0

>  <butcher #P1'>  (6) 
2

>  <butcher #P2'>  (6) 
0

>  <butcher #P3>  (6) 
4

>  <butcher #P4>  (6) 
0

>  <butcher #P5>  (6) 
0

>  <butcher #P6>  (6) 
0

$$$$
Z4497083212
     RDKit          3D

 15 15  0  0  0  0  0  0  0  0999 V2000
    5.5150   15.9730   24.3130 C   0  0  0  0  0  0  0  0  0  0  0  0
    5.7090   15.3970   22.9510 C   0  0  0  0  0  0  0  0  0  0  0  0
    6.4030   14.0870   23.0940 C   0  0  1  0  0  0  0  0  0  0  0  0
    6.3400   13.4080   21.8500 O   0  0  0  0  0  0  0  0  0  0  0  0
    7.8350   14.1510   23.5080 C   0  0  0  0  0  0  0  0  0  0  0  0
    8.4340   12.8610   23.7160 N   0  0  0  0  0  0  0  0  0  0  0  0
    7.8210   11.9440   24.6500 C   0  0  0  0  0  0  0  0  0  0  0  0
    8.3980   10.5140   24.6040 C   0  0  0  0  0  0  0  0  0  0  0  0
    9.6630   10.2890   23.8540 N   0  0  0  0  0  0  0  0  0  0  0  0
    9.7510    9.1400   22.9900 C   0  0  0  0  0  0  0  0  0  0  0  0
   10.2790   11.4320   23.2190 C   0  0  0  0  0  0  0  0  0  0  0  0
    9.8720   12.7850   23.7320 C   0  0  1  0  0  0  0  0  0  0  0  0
   10.5730   13.8100   22.8430 C   0  0  0  0  0  0  0  0  0  0  0  0
   11.9420   14.1290   23.4450 C   0  0  0  0  0  0  0  0  0  0  0  0
   12.8730   14.3380   22.4000 O   0  0  0  0  0  0  0  0  0  0  0  0
  1  2  1  0
  2  3  1  0
  3  4  1  6
  3  5  1  0
  5  6  1  0
  6  7  1  0
  7  8  1  0
  8  9  1  0
  9 10  1  0
  9 11  1  0
 11 12  1  0
 12 13  1  6
 13 14  1  0
 14 15  1  0
 12  6  1  0
A    1
 C1 
A    2
 C2 
A    3
 C3 
A    4
 O1 
A    5
 C4 
A    6
 N1 
A    7
 C5 
A    8
 C6 
A    9
 N2 
A   10
 C7 
A   11
 C8 
A   12
 C9 
A   13
 C10
A   14
 C11
A   15
 O2 
M  END
>  <ref_url>  (7) 
nan

>  <submitter_name>  (7) 
nan

>  <submitter_email>  (7) 
nan

>  <submitter_institution>  (7) 
nan

>  <generation_date>  (7) 
nan

>  <method>  (7) 
nan

>  <ddG>  (7) 
-5.476579

>  <score>  (7) 
-4.351869

>  <ref_mols>  (7) 
A71x0732a,A71x0375b

>  <original SMILES>  (7) 
CCC(O)CN1CCN(C)CC1CCO

>  <ref_pdb>  (7) 
A71x0310a

>  <butcher #BAD>  (7) 
0

>  <butcher #GOOD>  (7) 
15

>  <butcher #protein clash>  (7) 
0

>  <butcher #solvent space>  (7) 
0

>  <butcher #pocket>  (7) 
15

>  <butcher #P1>  (7) 
9

>  <butcher #P2>  (7) 
0

>  <butcher #P1'>  (7) 
2

>  <butcher #P2'>  (7) 
0

>  <butcher #P3>  (7) 
4

>  <butcher #P4>  (7) 
0

>  <butcher #P5>  (7) 
0

>  <butcher #P6>  (7) 
0

$$$$
Z3609150469
     RDKit          3D

 20 21  0  0  0  0  0  0  0  0999 V2000
   12.2640   15.9540   22.0100 C   0  0  0  0  0  0  0  0  0  0  0  0
   12.4660   14.9770   23.1320 C   0  0  0  0  0  0  0  0  0  0  0  0
   12.0550   13.5680   22.7680 C   0  0  0  0  0  0  0  0  0  0  0  0
   10.6140   13.2050   23.1950 C   0  0  2  0  0  0  0  0  0  0  0  0
   10.2360   11.7520   23.1680 C   0  0  0  0  0  0  0  0  0  0  0  0
    9.1190   11.5990   24.1580 C   0  0  2  0  0  0  0  0  0  0  0  0
    8.5960   10.1620   24.2410 C   0  0  0  0  0  0  0  0  0  0  0  0
    9.0410    9.2290   23.5780 O   0  0  0  0  0  0  0  0  0  0  0  0
    7.5800   10.0540   25.1500 N   0  0  0  0  0  0  0  0  0  0  0  0
    7.0130   11.2660   25.6760 C   0  0  0  0  0  0  0  0  0  0  0  0
    5.8410   11.0510   26.6020 C   0  0  0  0  0  0  0  0  0  0  0  0
    4.8820   12.0940   26.7960 O   0  0  0  0  0  0  0  0  0  0  0  0
    5.7520    9.8300   27.2370 N   0  0  0  0  0  0  0  0  0  0  0  0
    4.7670    9.6310   28.3220 C   0  0  0  0  0  0  0  0  0  0  0  0
    4.9520    8.3370   29.1130 C   0  0  0  0  0  0  0  0  0  0  0  0
    3.4330    8.1880   29.1690 C   0  0  0  0  0  0  0  0  0  0  0  0
    3.4150    9.0130   27.8760 C   0  0  0  0  0  0  0  0  0  0  0  0
    8.0410   12.6680   23.9450 C   0  0  0  0  0  0  0  0  0  0  0  0
    8.2640   13.6620   22.7970 C   0  0  0  0  0  0  0  0  0  0  0  0
    9.6390   13.9260   22.4690 O   0  0  0  0  0  0  0  0  0  0  0  0
  1  2  1  0
  2  3  1  0
  4  3  1  6
  4  5  1  0
  5  6  1  0
  6  7  1  6
  7  8  2  0
  7  9  1  0
  9 10  1  0
 10 11  1  0
 11 12  2  0
 11 13  1  0
 13 14  1  0
 14 15  1  0
 15 16  1  0
 16 17  1  0
  6 18  1  0
 18 19  1  0
 19 20  1  0
 20  4  1  0
 17 14  1  0
A    1
 C1 
A    2
 C2 
A    3
 C3 
A    4
 C4 
A    5
 C5 
A    6
 C6 
A    7
 C7 
A    8
 O1 
A    9
 N1 
A   10
 C8 
A   11
 C9 
A   12
 O2 
A   13
 N2 
A   14
 C10
A   15
 C11
A   16
 C12
A   17
 C13
A   18
 C14
A   19
 C15
A   20
 O3 
M  END
>  <ref_url>  (8) 
nan

>  <submitter_name>  (8) 
nan

>  <submitter_email>  (8) 
nan

>  <submitter_institution>  (8) 
nan

>  <generation_date>  (8) 
nan

>  <method>  (8) 
nan

>  <ddG>  (8) 
-4.92878

>  <score>  (8) 
-4.593078

>  <ref_mols>  (8) 
A71x0556a,A71x0375b

>  <original SMILES>  (8) 
CCCC1CC(C(=O)NCC(=O)NC2CCC2)CCO1

>  <ref_pdb>  (8) 
A71x0310a

>  <butcher #BAD>  (8) 
6

>  <butcher #GOOD>  (8) 
14

>  <butcher #protein clash>  (8) 
0

>  <butcher #solvent space>  (8) 
6

>  <butcher #pocket>  (8) 
14

>  <butcher #P1>  (8) 
12

>  <butcher #P2>  (8) 
1

>  <butcher #P1'>  (8) 
1

>  <butcher #P2'>  (8) 
0

>  <butcher #P3>  (8) 
0

>  <butcher #P4>  (8) 
0

>  <butcher #P5>  (8) 
0

>  <butcher #P6>  (8) 
0

$$$$
Z3633004642
     RDKit          3D

 17 18  0  0  0  0  0  0  0  0999 V2000
   12.0910   16.2390   22.0690 C   0  0  0  0  0  0  0  0  0  0  0  0
   12.3540   15.0780   22.9750 C   0  0  0  0  0  0  0  0  0  0  0  0
   11.7380   13.8090   22.4380 C   0  0  0  0  0  0  0  0  0  0  0  0
   11.0540   13.0230   23.5460 C   0  0  1  0  0  0  0  0  0  0  0  0
   10.5040   13.9200   24.5090 O   0  0  0  0  0  0  0  0  0  0  0  0
    9.9250   12.1700   22.9750 C   0  0  0  0  0  0  0  0  0  0  0  0
    8.9990   11.5100   23.9140 N   0  0  0  0  0  0  0  0  0  0  0  0
    8.0730   12.1910   24.7580 C   0  0  0  0  0  0  0  0  0  0  0  0
    7.2890   11.1890   25.5590 C   0  0  0  0  0  0  0  0  0  0  0  0
    6.2030   11.2870   26.5900 C   0  0  0  0  0  0  0  0  0  0  0  0
    5.5110    9.9920   26.7780 N   0  0  0  0  0  0  0  0  0  0  0  0
    4.7230    9.9390   28.0190 C   0  0  0  0  0  0  0  0  0  0  0  0
    5.2340    8.8560   28.9480 C   0  0  0  0  0  0  0  0  0  0  0  0
    3.7780    8.4440   29.2220 C   0  0  0  0  0  0  0  0  0  0  0  0
    3.4750    9.0260   27.8310 C   0  0  0  0  0  0  0  0  0  0  0  0
    7.8430    9.9980   25.0970 N   0  0  0  0  0  0  0  0  0  0  0  0
    8.8300   10.1880   24.1500 N   0  0  0  0  0  0  0  0  0  0  0  0
  1  2  1  0
  2  3  1  0
  3  4  1  0
  4  5  1  1
  4  6  1  0
  6  7  1  0
  7  8  1  0
  8  9  2  0
  9 10  1  0
 10 11  1  0
 11 12  1  0
 12 13  1  0
 13 14  1  0
 14 15  1  0
  9 16  1  0
 16 17  2  0
 17  7  1  0
 15 12  1  0
A    1
 C1 
A    2
 C2 
A    3
 C3 
A    4
 C4 
A    5
 O1 
A    6
 C5 
A    7
 N1 
A    8
 C6 
A    9
 C7 
A   10
 C8 
A   11
 N2 
A   12
 C9 
A   13
 C10
A   14
 C11
A   15
 C12
A   16
 N3 
A   17
 N4 
M  END
>  <ref_url>  (9) 
nan

>  <submitter_name>  (9) 
nan

>  <submitter_email>  (9) 
nan

>  <submitter_institution>  (9) 
nan

>  <generation_date>  (9) 
nan

>  <method>  (9) 
nan

>  <ddG>  (9) 
-5.878668

>  <score>  (9) 
-1.877875

>  <ref_mols>  (9) 
A71x0556a,A71x0375b

>  <original SMILES>  (9) 
CCCC(O)Cn1cc(CNC2CCC2)nn1

>  <ref_pdb>  (9) 
A71x0310a

>  <butcher #BAD>  (9) 
5

>  <butcher #GOOD>  (9) 
12

>  <butcher #protein clash>  (9) 
0

>  <butcher #solvent space>  (9) 
5

>  <butcher #pocket>  (9) 
12

>  <butcher #P1>  (9) 
10

>  <butcher #P2>  (9) 
1

>  <butcher #P1'>  (9) 
1

>  <butcher #P2'>  (9) 
0

>  <butcher #P3>  (9) 
0

>  <butcher #P4>  (9) 
0

>  <butcher #P5>  (9) 
0

>  <butcher #P6>  (9) 
0

$$$$
Z3841422242
     RDKit          3D

 18 19  0  0  0  0  0  0  0  0999 V2000
    9.8180    9.4740   23.1680 C   0  0  0  0  0  0  0  0  0  0  0  0
    9.0280   10.4070   23.9370 N   0  0  0  0  0  0  0  0  0  0  0  0
    7.9640   10.2610   24.7530 C   0  0  0  0  0  0  0  0  0  0  0  0
    7.3830   11.5380   25.3710 C   0  0  0  0  0  0  0  0  0  0  0  0
    6.1520   11.2540   26.2750 C   0  0  0  0  0  0  0  0  0  0  0  0
    5.2070   12.0380   26.4040 O   0  0  0  0  0  0  0  0  0  0  0  0
    6.0980   10.0630   26.9970 N   0  0  0  0  0  0  0  0  0  0  0  0
    4.9460    9.9750   27.9380 C   0  0  0  0  0  0  0  0  0  0  0  0
    5.1960    9.2410   29.2620 C   0  0  0  0  0  0  0  0  0  0  0  0
    4.3130    8.1320   28.8860 C   0  0  0  0  0  0  0  0  0  0  0  0
    3.8710    8.8310   27.6020 C   0  0  0  0  0  0  0  0  0  0  0  0
    8.3570   12.1780   24.7060 C   0  0  0  0  0  0  0  0  0  0  0  0
    8.4340   13.5380   24.8180 O   0  0  0  0  0  0  0  0  0  0  0  0
    7.2260   14.2120   24.4540 C   0  0  0  0  0  0  0  0  0  0  0  0
    7.0770   14.4870   22.9320 C   0  0  0  0  0  0  0  0  0  0  0  0
    8.2660   14.4530   22.2870 F   0  0  0  0  0  0  0  0  0  0  0  0
    6.3630   13.5880   22.2500 F   0  0  0  0  0  0  0  0  0  0  0  0
    9.3020   11.6650   23.9050 N   0  0  0  0  0  0  0  0  0  0  0  0
  1  2  1  0
  2  3  1  0
  3  4  2  0
  4  5  1  0
  5  6  2  0
  5  7  1  0
  7  8  1  0
  8  9  1  0
  9 10  1  0
 10 11  1  0
  4 12  1  0
 12 13  1  0
 13 14  1  0
 14 15  1  0
 15 16  1  0
 15 17  1  0
 12 18  2  0
 18  2  1  0
 11  8  1  0
A    1
 C1 
A    2
 N1 
A    3
 C2 
A    4
 C3 
A    5
 C4 
A    6
 O1 
A    7
 N2 
A    8
 C5 
A    9
 C6 
A   10
 C7 
A   11
 C8 
A   12
 C9 
A   13
 O2 
A   14
 C10
A   15
 C11
A   16
 F1 
A   17
 F2 
A   18
 N3 
M  END
>  <ref_url>  (10) 
nan

>  <submitter_name>  (10) 
nan

>  <submitter_email>  (10) 
nan

>  <submitter_institution>  (10) 
nan

>  <generation_date>  (10) 
nan

>  <method>  (10) 
nan

>  <ddG>  (10) 
-4.666958

>  <score>  (10) 
14.114206

>  <ref_mols>  (10) 
A71x0556a,A71x0719a

>  <original SMILES>  (10) 
Cn1cc(C(=O)NC2CCC2)c(OCC(F)F)n1

>  <ref_pdb>  (10) 
A71x0310a

>  <butcher #BAD>  (10) 
6

>  <butcher #GOOD>  (10) 
12

>  <butcher #protein clash>  (10) 
0

>  <butcher #solvent space>  (10) 
6

>  <butcher #pocket>  (10) 
12

>  <butcher #P1>  (10) 
11

>  <butcher #P2>  (10) 
0

>  <butcher #P1'>  (10) 
0

>  <butcher #P2'>  (10) 
0

>  <butcher #P3>  (10) 
1

>  <butcher #P4>  (10) 
0

>  <butcher #P5>  (10) 
0

>  <butcher #P6>  (10) 
0

$$$$
Z4265555960
     RDKit          3D

 15 15  0  0  0  0  0  0  0  0999 V2000
   10.0170   15.6540   20.5130 C   0  0  0  0  0  0  0  0  0  0  0  0
   10.8230   14.8820   21.5490 C   0  0  0  0  0  0  0  0  0  0  0  0
   11.9890   15.5690   22.1470 N   0  0  0  0  0  0  0  0  0  0  0  0
   12.8920   16.0210   21.1320 C   0  0  0  0  0  0  0  0  0  0  0  0
   12.7710   14.5880   22.9220 C   0  0  0  0  0  0  0  0  0  0  0  0
   11.9450   13.5410   23.6570 C   0  0  0  0  0  0  0  0  0  0  0  0
   10.6500   13.2770   23.0460 N   0  0  0  0  0  0  0  0  0  0  0  0
    9.6630   12.8300   24.0190 C   0  0  1  0  0  0  0  0  0  0  0  0
    8.5110   13.8080   24.1360 C   0  0  0  0  0  0  0  0  0  0  0  0
    7.1800   13.1520   24.5380 C   0  0  0  0  0  0  0  0  0  0  0  0
    7.3320   11.8680   25.3510 C   0  0  0  0  0  0  0  0  0  0  0  0
    8.2600   10.8520   24.6860 C   0  0  0  0  0  0  0  0  0  0  0  0
    9.1840   11.4450   23.6170 C   0  0  2  0  0  0  0  0  0  0  0  0
   10.3070   10.5920   23.3720 O   0  0  0  0  0  0  0  0  0  0  0  0
    9.9820    9.2830   22.9500 C   0  0  0  0  0  0  0  0  0  0  0  0
  1  2  1  0
  2  3  1  0
  3  4  1  0
  3  5  1  0
  5  6  1  0
  6  7  1  0
  8  7  1  6
  8  9  1  0
  9 10  1  0
 10 11  1  0
 11 12  1  0
 12 13  1  0
 13 14  1  1
 14 15  1  0
 13  8  1  0
A    1
 C1 
A    2
 C2 
A    3
 N1 
A    4
 C3 
A    5
 C4 
A    6
 C5 
A    7
 N2 
A    8
 C6 
A    9
 C7 
A   10
 C8 
A   11
 C9 
A   12
 C10
A   13
 C11
A   14
 O1 
A   15
 C12
M  END
>  <ref_url>  (11) 
nan

>  <submitter_name>  (11) 
nan

>  <submitter_email>  (11) 
nan

>  <submitter_institution>  (11) 
nan

>  <generation_date>  (11) 
nan

>  <method>  (11) 
nan

>  <ddG>  (11) 
-4.628133

>  <score>  (11) 
13.508214

>  <ref_mols>  (11) 
A71x0375b,A71x0528a

>  <original SMILES>  (11) 
CCN(C)CCN[C@H]1CCCC[C@@H]1OC

>  <ref_pdb>  (11) 
A71x0310a

>  <butcher #BAD>  (11) 
1

>  <butcher #GOOD>  (11) 
14

>  <butcher #protein clash>  (11) 
0

>  <butcher #solvent space>  (11) 
1

>  <butcher #pocket>  (11) 
14

>  <butcher #P1>  (11) 
10

>  <butcher #P2>  (11) 
3

>  <butcher #P1'>  (11) 
1

>  <butcher #P2'>  (11) 
0

>  <butcher #P3>  (11) 
0

>  <butcher #P4>  (11) 
0

>  <butcher #P5>  (11) 
0

>  <butcher #P6>  (11) 
0

$$$$
Z1997417426
     RDKit          3D

 16 16  0  0  0  0  0  0  0  0999 V2000
    9.9540    9.3220   22.9620 C   0  0  0  0  0  0  0  0  0  0  0  0
   10.2250   10.6290   23.4230 O   0  0  0  0  0  0  0  0  0  0  0  0
    9.0740   11.4510   23.6470 C   0  0  1  0  0  0  0  0  0  0  0  0
    8.1820   10.9230   24.7580 C   0  0  0  0  0  0  0  0  0  0  0  0
    7.2400   11.9520   25.3810 C   0  0  0  0  0  0  0  0  0  0  0  0
    7.1430   13.2700   24.5950 C   0  0  0  0  0  0  0  0  0  0  0  0
    8.4670   13.8610   24.1390 C   0  0  0  0  0  0  0  0  0  0  0  0
    9.5960   12.8390   23.9450 C   0  0  2  0  0  0  0  0  0  0  0  0
   10.5020   13.2500   22.8870 N   0  0  0  0  0  0  0  0  0  0  0  0
   11.7510   13.5390   23.2880 C   0  0  0  0  0  0  0  0  0  0  0  0
   12.1800   13.1940   24.3820 O   0  0  0  0  0  0  0  0  0  0  0  0
   12.5170   14.2670   22.4350 N   0  0  0  0  0  0  0  0  0  0  0  0
   13.5360   15.0000   23.0550 C   0  0  0  0  0  0  0  0  0  0  0  0
   11.8870   15.0950   21.4200 C   0  0  0  0  0  0  0  0  0  0  0  0
   10.4070   14.8060   21.1450 C   0  0  0  0  0  0  0  0  0  0  0  0
    9.8200   15.8800   20.4330 O   0  0  0  0  0  0  0  0  0  0  0  0
  1  2  1  0
  3  2  1  1
  3  4  1  0
  4  5  1  0
  5  6  1  0
  6  7  1  0
  7  8  1  0
  8  9  1  6
  9 10  1  0
 10 11  2  0
 10 12  1  0
 12 13  1  0
 12 14  1  0
 14 15  1  0
 15 16  1  0
  8  3  1  0
A    1
 C1 
A    2
 O1 
A    3
 C2 
A    4
 C3 
A    5
 C4 
A    6
 C5 
A    7
 C6 
A    8
 C7 
A    9
 N1 
A   10
 C8 
A   11
 O2 
A   12
 N2 
A   13
 C9 
A   14
 C10
A   15
 C11
A   16
 O3 
M  END
>  <ref_url>  (12) 
nan

>  <submitter_name>  (12) 
nan

>  <submitter_email>  (12) 
nan

>  <submitter_institution>  (12) 
nan

>  <generation_date>  (12) 
nan

>  <method>  (12) 
nan

>  <ddG>  (12) 
-5.561724

>  <score>  (12) 
23.069152

>  <ref_mols>  (12) 
A71x0375b,A71x0528a

>  <original SMILES>  (12) 
CO[C@H]1CCCC[C@@H]1NC(=O)N(C)CCO

>  <ref_pdb>  (12) 
A71x0310a

>  <butcher #BAD>  (12) 
0

>  <butcher #GOOD>  (12) 
16

>  <butcher #protein clash>  (12) 
0

>  <butcher #solvent space>  (12) 
0

>  <butcher #pocket>  (12) 
16

>  <butcher #P1>  (12) 
10

>  <butcher #P2>  (12) 
3

>  <butcher #P1'>  (12) 
3

>  <butcher #P2'>  (12) 
0

>  <butcher #P3>  (12) 
0

>  <butcher #P4>  (12) 
0

>  <butcher #P5>  (12) 
0

>  <butcher #P6>  (12) 
0

$$$$
Z2488893485
     RDKit          3D

 14 14  0  0  0  0  0  0  0  0999 V2000
   10.1810   15.1200   20.7710 C   0  0  0  0  0  0  0  0  0  0  0  0
   11.5490   14.6000   20.8550 N   0  0  0  0  0  0  0  0  0  0  0  0
   12.1450   14.6820   22.2240 C   0  0  0  0  0  0  0  0  0  0  0  0
   11.3320   13.8040   23.1810 C   0  0  0  0  0  0  0  0  0  0  0  0
   11.7000   13.5500   24.3330 O   0  0  0  0  0  0  0  0  0  0  0  0
   10.1720   13.3570   22.5710 N   0  0  0  0  0  0  0  0  0  0  0  0
    8.9700   12.9030   23.2830 C   0  0  2  0  0  0  0  0  0  0  0  0
    8.2800   13.9180   24.1730 C   0  0  0  0  0  0  0  0  0  0  0  0
    7.0730   13.3550   24.9310 C   0  0  0  0  0  0  0  0  0  0  0  0
    7.2770   11.9790   25.5600 C   0  0  0  0  0  0  0  0  0  0  0  0
    8.1710   11.0310   24.7640 C   0  0  0  0  0  0  0  0  0  0  0  0
    9.3670   11.7260   24.1250 C   0  0  1  0  0  0  0  0  0  0  0  0
   10.1670   10.8860   23.2630 O   0  0  0  0  0  0  0  0  0  0  0  0
    9.9030    9.4910   23.2380 C   0  0  0  0  0  0  0  0  0  0  0  0
  1  2  1  0
  2  3  1  0
  3  4  1  0
  4  5  2  0
  4  6  1  0
  7  6  1  1
  7  8  1  0
  8  9  1  0
  9 10  1  0
 10 11  1  0
 11 12  1  0
 12 13  1  6
 13 14  1  0
 12  7  1  0
A    1
 C1 
A    2
 N1 
A    3
 C2 
A    4
 C3 
A    5
 O1 
A    6
 N2 
A    7
 C4 
A    8
 C5 
A    9
 C6 
A   10
 C7 
A   11
 C8 
A   12
 C9 
A   13
 O2 
A   14
 C10
M  END
>  <ref_url>  (13) 
nan

>  <submitter_name>  (13) 
nan

>  <submitter_email>  (13) 
nan

>  <submitter_institution>  (13) 
nan

>  <generation_date>  (13) 
nan

>  <method>  (13) 
nan

>  <ddG>  (13) 
-5.875862

>  <score>  (13) 
22.809039

>  <ref_mols>  (13) 
A71x0375b,A71x0922a

>  <original SMILES>  (13) 
CNCC(=O)N[C@@H]1CCCC[C@H]1OC

>  <ref_pdb>  (13) 
A71x0310a

>  <butcher #BAD>  (13) 
0

>  <butcher #GOOD>  (13) 
14

>  <butcher #protein clash>  (13) 
0

>  <butcher #solvent space>  (13) 
0

>  <butcher #pocket>  (13) 
14

>  <butcher #P1>  (13) 
11

>  <butcher #P2>  (13) 
2

>  <butcher #P1'>  (13) 
1

>  <butcher #P2'>  (13) 
0

>  <butcher #P3>  (13) 
0

>  <butcher #P4>  (13) 
0

>  <butcher #P5>  (13) 
0

>  <butcher #P6>  (13) 
0

$$$$
Z2477560426
     RDKit          3D

 14 14  0  0  0  0  0  0  0  0999 V2000
   10.3710   14.9930   20.6180 C   0  0  0  0  0  0  0  0  0  0  0  0
   11.5310   15.1530   21.4410 O   0  0  0  0  0  0  0  0  0  0  0  0
   11.9690   13.8830   21.9410 N   0  0  0  0  0  0  0  0  0  0  0  0
   11.5410   13.7020   23.2450 C   0  0  0  0  0  0  0  0  0  0  0  0
   12.2180   13.3400   24.2100 O   0  0  0  0  0  0  0  0  0  0  0  0
   10.0840   14.0560   23.3260 N   0  0  0  0  0  0  0  0  0  0  0  0
    8.9960   13.0820   23.3010 C   0  0  2  0  0  0  0  0  0  0  0  0
    7.6760   13.7270   23.7650 C   0  0  0  0  0  0  0  0  0  0  0  0
    7.3380   13.3990   25.2160 C   0  0  0  0  0  0  0  0  0  0  0  0
    7.2120   11.9230   25.4850 C   0  0  0  0  0  0  0  0  0  0  0  0
    8.1980   11.0460   24.7330 C   0  0  0  0  0  0  0  0  0  0  0  0
    9.3610   11.8360   24.1090 C   0  0  1  0  0  0  0  0  0  0  0  0
   10.1550   10.9420   23.2900 O   0  0  0  0  0  0  0  0  0  0  0  0
    9.8440    9.5490   23.2870 C   0  0  0  0  0  0  0  0  0  0  0  0
  1  2  1  0
  2  3  1  0
  3  4  1  0
  4  5  2  0
  4  6  1  0
  7  6  1  1
  7  8  1  0
  8  9  1  0
  9 10  1  0
 10 11  1  0
 11 12  1  0
 12 13  1  6
 13 14  1  0
 12  7  1  0
A    1
 C1 
A    2
 O1 
A    3
 N1 
A    4
 C2 
A    5
 O2 
A    6
 N2 
A    7
 C3 
A    8
 C4 
A    9
 C5 
A   10
 C6 
A   11
 C7 
A   12
 C8 
A   13
 O3 
A   14
 C9 
M  END
>  <ref_url>  (14) 
nan

>  <submitter_name>  (14) 
nan

>  <submitter_email>  (14) 
nan

>  <submitter_institution>  (14) 
nan

>  <generation_date>  (14) 
nan

>  <method>  (14) 
nan

>  <ddG>  (14) 
-4.569113

>  <score>  (14) 
19.780923

>  <ref_mols>  (14) 
A71x0375b,A71x0922a

>  <original SMILES>  (14) 
CONC(=O)N[C@@H]1CCCC[C@H]1OC

>  <ref_pdb>  (14) 
A71x0310a

>  <butcher #BAD>  (14) 
0

>  <butcher #GOOD>  (14) 
14

>  <butcher #protein clash>  (14) 
0

>  <butcher #solvent space>  (14) 
0

>  <butcher #pocket>  (14) 
14

>  <butcher #P1>  (14) 
11

>  <butcher #P2>  (14) 
2

>  <butcher #P1'>  (14) 
1

>  <butcher #P2'>  (14) 
0

>  <butcher #P3>  (14) 
0

>  <butcher #P4>  (14) 
0

>  <butcher #P5>  (14) 
0

>  <butcher #P6>  (14) 
0

$$$$
Z2474019182
     RDKit          3D

 14 14  0  0  0  0  0  0  0  0999 V2000
   10.2670   15.1430   20.7420 C   0  0  0  0  0  0  0  0  0  0  0  0
   11.6830   15.0070   20.8740 O   0  0  0  0  0  0  0  0  0  0  0  0
   12.1940   14.7900   22.2050 C   0  0  0  0  0  0  0  0  0  0  0  0
   11.4130   13.6740   22.9370 C   0  0  1  0  0  0  0  0  0  0  0  0
   11.4460   13.9440   24.4490 C   0  0  0  0  0  0  0  0  0  0  0  0
   10.0330   13.5120   22.3970 N   0  0  0  0  0  0  0  0  0  0  0  0
    8.9270   12.9680   23.2470 C   0  0  2  0  0  0  0  0  0  0  0  0
    8.2520   13.9580   24.1600 C   0  0  0  0  0  0  0  0  0  0  0  0
    7.0780   13.3520   24.9110 C   0  0  0  0  0  0  0  0  0  0  0  0
    7.3300   11.9760   25.5040 C   0  0  0  0  0  0  0  0  0  0  0  0
    8.2640   11.0570   24.7180 C   0  0  0  0  0  0  0  0  0  0  0  0
    9.4310   11.7860   24.0490 C   0  0  1  0  0  0  0  0  0  0  0  0
   10.1860   10.9620   23.1410 O   0  0  0  0  0  0  0  0  0  0  0  0
    9.9570    9.5560   23.2020 C   0  0  0  0  0  0  0  0  0  0  0  0
  1  2  1  0
  2  3  1  0
  3  4  1  0
  4  5  1  1
  4  6  1  0
  7  6  1  1
  7  8  1  0
  8  9  1  0
  9 10  1  0
 10 11  1  0
 11 12  1  0
 12 13  1  6
 13 14  1  0
 12  7  1  0
A    1
 C1 
A    2
 O1 
A    3
 C2 
A    4
 C3 
A    5
 C4 
A    6
 N1 
A    7
 C5 
A    8
 C6 
A    9
 C7 
A   10
 C8 
A   11
 C9 
A   12
 C10
A   13
 O2 
A   14
 C11
M  END
>  <ref_url>  (15) 
nan

>  <submitter_name>  (15) 
nan

>  <submitter_email>  (15) 
nan

>  <submitter_institution>  (15) 
nan

>  <generation_date>  (15) 
nan

>  <method>  (15) 
nan

>  <ddG>  (15) 
-6.031663

>  <score>  (15) 
26.717511

>  <ref_mols>  (15) 
A71x0375b,A71x0922a

>  <original SMILES>  (15) 
COCC(C)N[C@@H]1CCCC[C@H]1OC

>  <ref_pdb>  (15) 
A71x0310a

>  <butcher #BAD>  (15) 
0

>  <butcher #GOOD>  (15) 
14

>  <butcher #protein clash>  (15) 
0

>  <butcher #solvent space>  (15) 
0

>  <butcher #pocket>  (15) 
14

>  <butcher #P1>  (15) 
11

>  <butcher #P2>  (15) 
2

>  <butcher #P1'>  (15) 
1

>  <butcher #P2'>  (15) 
0

>  <butcher #P3>  (15) 
0

>  <butcher #P4>  (15) 
0

>  <butcher #P5>  (15) 
0

>  <butcher #P6>  (15) 
0

$$$$
Z3641497733
     RDKit          3D

 14 14  0  0  0  0  0  0  0  0999 V2000
    9.9740    9.3850   23.0570 C   0  0  0  0  0  0  0  0  0  0  0  0
   10.2590   10.7640   23.2200 O   0  0  0  0  0  0  0  0  0  0  0  0
    9.1380   11.5780   23.5790 C   0  0  1  0  0  0  0  0  0  0  0  0
    8.2820   10.9530   24.6760 C   0  0  0  0  0  0  0  0  0  0  0  0
    7.3460   11.9280   25.3930 C   0  0  0  0  0  0  0  0  0  0  0  0
    7.2080   13.2510   24.6210 C   0  0  0  0  0  0  0  0  0  0  0  0
    8.5320   13.9150   24.2780 C   0  0  0  0  0  0  0  0  0  0  0  0
    9.6880   12.9560   23.9690 C   0  0  2  0  0  0  0  0  0  0  0  0
   10.4740   13.4630   22.8270 N   0  0  0  0  0  0  0  0  0  0  0  0
   11.8920   13.8030   23.0520 C   0  0  2  0  0  0  0  0  0  0  0  0
   12.3490   14.0230   24.4730 C   0  0  0  0  0  0  0  0  0  0  0  0
   12.4020   14.8450   22.0460 C   0  0  0  0  0  0  0  0  0  0  0  0
   11.7060   14.6550   20.3720 S   0  0  0  0  0  0  0  0  0  0  0  0
   10.0040   15.2030   20.6300 C   0  0  0  0  0  0  0  0  0  0  0  0
  1  2  1  0
  3  2  1  1
  3  4  1  0
  4  5  1  0
  5  6  1  0
  6  7  1  0
  7  8  1  0
  8  9  1  6
  9 10  1  0
 10 11  1  1
 10 12  1  0
 12 13  1  0
 13 14  1  0
  8  3  1  0
A    1
 C1 
A    2
 O1 
A    3
 C2 
A    4
 C3 
A    5
 C4 
A    6
 C5 
A    7
 C6 
A    8
 C7 
A    9
 N1 
A   10
 C8 
A   11
 C9 
A   12
 C10
A   13
 S1 
A   14
 C11
M  END
>  <ref_url>  (16) 
nan

>  <submitter_name>  (16) 
nan

>  <submitter_email>  (16) 
nan

>  <submitter_institution>  (16) 
nan

>  <generation_date>  (16) 
nan

>  <method>  (16) 
nan

>  <ddG>  (16) 
-8.158348

>  <score>  (16) 
6.398829

>  <ref_mols>  (16) 
A71x0375b,A71x0922a

>  <original SMILES>  (16) 
CO[C@H]1CCCC[C@@H]1NC(C)CSC

>  <ref_pdb>  (16) 
A71x0310a

>  <butcher #BAD>  (16) 
0

>  <butcher #GOOD>  (16) 
14

>  <butcher #protein clash>  (16) 
0

>  <butcher #solvent space>  (16) 
0

>  <butcher #pocket>  (16) 
14

>  <butcher #P1>  (16) 
10

>  <butcher #P2>  (16) 
2

>  <butcher #P1'>  (16) 
2

>  <butcher #P2'>  (16) 
0

>  <butcher #P3>  (16) 
0

>  <butcher #P4>  (16) 
0

>  <butcher #P5>  (16) 
0

>  <butcher #P6>  (16) 
0

$$$$
Z2982699141
     RDKit          3D

 14 14  0  0  0  0  0  0  0  0999 V2000
    9.8230   15.6660   20.0920 C   0  0  0  0  0  0  0  0  0  0  0  0
   11.0340   14.8910   20.5960 C   0  0  0  0  0  0  0  0  0  0  0  0
   11.3880   15.1780   21.9710 N   0  0  0  0  0  0  0  0  0  0  0  0
   11.1830   14.2110   22.9330 C   0  0  0  0  0  0  0  0  0  0  0  0
   12.0860   13.9870   24.3190 S   0  0  0  0  0  0  0  0  0  0  0  0
   10.1010   13.4560   22.5030 N   0  0  0  0  0  0  0  0  0  0  0  0
    8.9250   12.9400   23.2550 C   0  0  2  0  0  0  0  0  0  0  0  0
    8.2250   13.9080   24.1920 C   0  0  0  0  0  0  0  0  0  0  0  0
    7.2120   13.4280   24.7180 O   0  0  0  0  0  0  0  0  0  0  0  0
    7.3350   12.1830   25.4140 C   0  0  0  0  0  0  0  0  0  0  0  0
    8.2170   11.1280   24.7480 C   0  0  0  0  0  0  0  0  0  0  0  0
    9.3960   11.7630   24.0540 C   0  0  1  0  0  0  0  0  0  0  0  0
   10.1000   10.8210   23.2200 O   0  0  0  0  0  0  0  0  0  0  0  0
    9.8080    9.4370   23.3320 C   0  0  0  0  0  0  0  0  0  0  0  0
  1  2  1  0
  2  3  1  0
  3  4  1  0
  4  5  2  0
  4  6  1  0
  7  6  1  1
  7  8  1  0
  8  9  1  0
  9 10  1  0
 10 11  1  0
 11 12  1  0
 12 13  1  6
 13 14  1  0
 12  7  1  0
A    1
 C1 
A    2
 C2 
A    3
 N1 
A    4
 C3 
A    5
 S1 
A    6
 N2 
A    7
 C4 
A    8
 C5 
A    9
 O1 
A   10
 C6 
A   11
 C7 
A   12
 C8 
A   13
 O2 
A   14
 C9 
M  END
>  <ref_url>  (17) 
nan

>  <submitter_name>  (17) 
nan

>  <submitter_email>  (17) 
nan

>  <submitter_institution>  (17) 
nan

>  <generation_date>  (17) 
nan

>  <method>  (17) 
nan

>  <ddG>  (17) 
-5.81122

>  <score>  (17) 
11.432193

>  <ref_mols>  (17) 
A71x0375b,A71x0922a

>  <original SMILES>  (17) 
CCNC(=S)N[C@@H]1COCC[C@H]1OC

>  <ref_pdb>  (17) 
A71x0310a

>  <butcher #BAD>  (17) 
0

>  <butcher #GOOD>  (17) 
14

>  <butcher #protein clash>  (17) 
0

>  <butcher #solvent space>  (17) 
0

>  <butcher #pocket>  (17) 
14

>  <butcher #P1>  (17) 
10

>  <butcher #P2>  (17) 
3

>  <butcher #P1'>  (17) 
1

>  <butcher #P2'>  (17) 
0

>  <butcher #P3>  (17) 
0

>  <butcher #P4>  (17) 
0

>  <butcher #P5>  (17) 
0

>  <butcher #P6>  (17) 
0

$$$$
Z2904586681
     RDKit          3D

 14 14  0  0  0  0  0  0  0  0999 V2000
   12.2480   14.3780   20.6680 C   0  0  0  0  0  0  0  0  0  0  0  0
   12.0120   14.8230   22.0180 N   0  0  0  0  0  0  0  0  0  0  0  0
   11.2410   14.1780   22.9600 C   0  0  0  0  0  0  0  0  0  0  0  0
   11.9290   13.7320   24.4090 S   0  0  0  0  0  0  0  0  0  0  0  0
    9.8880   13.9770   22.5620 N   0  0  0  0  0  0  0  0  0  0  0  0
    9.4250   14.3850   21.2400 C   0  0  0  0  0  0  0  0  0  0  0  0
    8.8940   13.1620   23.3350 C   0  0  2  0  0  0  0  0  0  0  0  0
    8.1410   14.0040   24.3630 C   0  0  0  0  0  0  0  0  0  0  0  0
    7.1540   13.2370   25.2410 C   0  0  0  0  0  0  0  0  0  0  0  0
    7.7450   12.0770   25.8030 O   0  0  0  0  0  0  0  0  0  0  0  0
    8.2750   11.2410   24.7760 C   0  0  0  0  0  0  0  0  0  0  0  0
    9.4310   11.9060   23.9980 C   0  0  1  0  0  0  0  0  0  0  0  0
   10.0020   11.0290   22.9900 O   0  0  0  0  0  0  0  0  0  0  0  0
    9.8720    9.6300   23.2170 C   0  0  0  0  0  0  0  0  0  0  0  0
  1  2  1  0
  2  3  1  0
  3  4  2  0
  3  5  1  0
  5  6  1  0
  7  5  1  1
  7  8  1  0
  8  9  1  0
  9 10  1  0
 10 11  1  0
 11 12  1  0
 12 13  1  6
 13 14  1  0
 12  7  1  0
A    1
 C1 
A    2
 N1 
A    3
 C2 
A    4
 S1 
A    5
 N2 
A    6
 C3 
A    7
 C4 
A    8
 C5 
A    9
 C6 
A   10
 O1 
A   11
 C7 
A   12
 C8 
A   13
 O2 
A   14
 C9 
M  END
>  <ref_url>  (18) 
nan

>  <submitter_name>  (18) 
nan

>  <submitter_email>  (18) 
nan

>  <submitter_institution>  (18) 
nan

>  <generation_date>  (18) 
nan

>  <method>  (18) 
nan

>  <ddG>  (18) 
-5.769333

>  <score>  (18) 
6.439223

>  <ref_mols>  (18) 
A71x0375b,A71x0922a

>  <original SMILES>  (18) 
CNC(=S)N(C)C1CCOCC1OC

>  <ref_pdb>  (18) 
A71x0310a

>  <butcher #BAD>  (18) 
1

>  <butcher #GOOD>  (18) 
13

>  <butcher #protein clash>  (18) 
0

>  <butcher #solvent space>  (18) 
1

>  <butcher #pocket>  (18) 
13

>  <butcher #P1>  (18) 
10

>  <butcher #P2>  (18) 
1

>  <butcher #P1'>  (18) 
2

>  <butcher #P2'>  (18) 
0

>  <butcher #P3>  (18) 
0

>  <butcher #P4>  (18) 
0

>  <butcher #P5>  (18) 
0

>  <butcher #P6>  (18) 
0

$$$$
Z439265156
     RDKit          3D

 14 14  0  0  0  0  0  0  0  0999 V2000
    9.9310    9.1980   23.2220 C   0  0  0  0  0  0  0  0  0  0  0  0
   10.0080   10.6810   23.0240 C   0  0  0  0  0  0  0  0  0  0  0  0
    8.9540   11.5600   23.6800 C   0  0  1  0  0  0  0  0  0  0  0  0
    8.0940   10.9920   24.8520 C   0  0  0  0  0  0  0  0  0  0  0  0
    7.2410   12.1440   25.4600 C   0  0  0  0  0  0  0  0  0  0  0  0
    7.1450   13.4310   24.6530 C   0  0  0  0  0  0  0  0  0  0  0  0
    8.5090   13.9760   24.2350 C   0  0  0  0  0  0  0  0  0  0  0  0
    9.5770   12.9050   24.0150 C   0  0  2  0  0  0  0  0  0  0  0  0
   10.5280   13.3040   22.9780 N   0  0  0  0  0  0  0  0  0  0  0  0
   11.6670   13.9860   23.3390 C   0  0  0  0  0  0  0  0  0  0  0  0
   12.3710   13.6500   24.2930 O   0  0  0  0  0  0  0  0  0  0  0  0
   11.8800   15.0760   22.5060 N   0  0  0  0  0  0  0  0  0  0  0  0
   11.5990   14.8380   21.1260 O   0  0  0  0  0  0  0  0  0  0  0  0
   10.2170   15.0370   20.8260 C   0  0  0  0  0  0  0  0  0  0  0  0
  1  2  1  0
  3  2  1  1
  3  4  1  0
  4  5  1  0
  5  6  1  0
  6  7  1  0
  7  8  1  0
  8  9  1  6
  9 10  1  0
 10 11  2  0
 10 12  1  0
 12 13  1  0
 13 14  1  0
  8  3  1  0
A    1
 C1 
A    2
 C2 
A    3
 C3 
A    4
 C4 
A    5
 C5 
A    6
 C6 
A    7
 C7 
A    8
 C8 
A    9
 N1 
A   10
 C9 
A   11
 O1 
A   12
 N2 
A   13
 O2 
A   14
 C10
M  END
>  <ref_url>  (19) 
nan

>  <submitter_name>  (19) 
nan

>  <submitter_email>  (19) 
nan

>  <submitter_institution>  (19) 
nan

>  <generation_date>  (19) 
nan

>  <method>  (19) 
nan

>  <ddG>  (19) 
-5.117192

>  <score>  (19) 
10.378029

>  <ref_mols>  (19) 
A71x0375b,A71x0922a

>  <original SMILES>  (19) 
CCC1CCCCC1NC(=O)NOC

>  <ref_pdb>  (19) 
A71x0310a

>  <butcher #BAD>  (19) 
0

>  <butcher #GOOD>  (19) 
14

>  <butcher #protein clash>  (19) 
0

>  <butcher #solvent space>  (19) 
0

>  <butcher #pocket>  (19) 
14

>  <butcher #P1>  (19) 
10

>  <butcher #P2>  (19) 
2

>  <butcher #P1'>  (19) 
2

>  <butcher #P2'>  (19) 
0

>  <butcher #P3>  (19) 
0

>  <butcher #P4>  (19) 
0

>  <butcher #P5>  (19) 
0

>  <butcher #P6>  (19) 
0

$$$$
Z2449454173
     RDKit          3D

 14 14  0  0  0  0  0  0  0  0999 V2000
   10.2990   15.2190   20.7910 C   0  0  0  0  0  0  0  0  0  0  0  0
   11.5850   14.5490   20.9620 N   0  0  0  0  0  0  0  0  0  0  0  0
   12.1950   14.7560   22.3060 C   0  0  0  0  0  0  0  0  0  0  0  0
   11.5810   13.7660   23.2860 C   0  0  0  0  0  0  0  0  0  0  0  0
   11.9480   13.6460   24.4570 O   0  0  0  0  0  0  0  0  0  0  0  0
   10.5840   13.0200   22.6960 N   0  0  0  0  0  0  0  0  0  0  0  0
    9.2680   12.7150   23.2390 C   0  0  2  0  0  0  0  0  0  0  0  0
    8.8120   13.5830   24.4460 C   0  0  0  0  0  0  0  0  0  0  0  0
    7.4710   12.9970   25.0170 C   0  0  0  0  0  0  0  0  0  0  0  0
    7.1790   11.8160   24.8920 O   0  0  0  0  0  0  0  0  0  0  0  0
    8.3420   11.0020   24.8300 C   0  0  0  0  0  0  0  0  0  0  0  0
    9.1470   11.2110   23.5540 C   0  0  2  0  0  0  0  0  0  0  0  0
   10.3840   10.5290   23.4540 O   0  0  0  0  0  0  0  0  0  0  0  0
   10.2020    9.1860   23.0180 C   0  0  0  0  0  0  0  0  0  0  0  0
  1  2  1  0
  2  3  1  0
  3  4  1  0
  4  5  2  0
  4  6  1  0
  7  6  1  1
  7  8  1  0
  8  9  1  0
  9 10  1  0
 10 11  1  0
 11 12  1  0
 12 13  1  1
 13 14  1  0
 12  7  1  0
A    1
 C1 
A    2
 N1 
A    3
 C2 
A    4
 C3 
A    5
 O1 
A    6
 N2 
A    7
 C4 
A    8
 C5 
A    9
 C6 
A   10
 O2 
A   11
 C7 
A   12
 C8 
A   13
 O3 
A   14
 C9 
M  END
>  <ref_url>  (20) 
nan

>  <submitter_name>  (20) 
nan

>  <submitter_email>  (20) 
nan

>  <submitter_institution>  (20) 
nan

>  <generation_date>  (20) 
nan

>  <method>  (20) 
nan

>  <ddG>  (20) 
-4.988628

>  <score>  (20) 
1.889054

>  <ref_mols>  (20) 
A71x0375b,A71x0922a

>  <original SMILES>  (20) 
CNCC(=O)NC1CCOCC1OC

>  <ref_pdb>  (20) 
A71x0310a

>  <butcher #BAD>  (20) 
0

>  <butcher #GOOD>  (20) 
14

>  <butcher #protein clash>  (20) 
0

>  <butcher #solvent space>  (20) 
0

>  <butcher #pocket>  (20) 
14

>  <butcher #P1>  (20) 
10

>  <butcher #P2>  (20) 
2

>  <butcher #P1'>  (20) 
2

>  <butcher #P2'>  (20) 
0

>  <butcher #P3>  (20) 
0

>  <butcher #P4>  (20) 
0

>  <butcher #P5>  (20) 
0

>  <butcher #P6>  (20) 
0

$$$$
Z3137320669
     RDKit          3D

 14 14  0  0  0  0  0  0  0  0999 V2000
   10.2000   15.1360   20.7500 C   0  0  0  0  0  0  0  0  0  0  0  0
   11.5620   14.6070   20.8520 N   0  0  0  0  0  0  0  0  0  0  0  0
   12.1650   14.7030   22.2160 C   0  0  0  0  0  0  0  0  0  0  0  0
   11.3540   13.8400   23.1820 C   0  0  0  0  0  0  0  0  0  0  0  0
   11.7380   13.5510   24.3220 O   0  0  0  0  0  0  0  0  0  0  0  0
   10.1580   13.4290   22.6060 N   0  0  0  0  0  0  0  0  0  0  0  0
    8.9260   12.9410   23.2730 C   0  0  2  0  0  0  0  0  0  0  0  0
    8.2590   13.9020   24.2450 C   0  0  0  0  0  0  0  0  0  0  0  0
    7.0940   13.3080   24.8180 O   0  0  0  0  0  0  0  0  0  0  0  0
    7.2890   12.0550   25.4800 C   0  0  0  0  0  0  0  0  0  0  0  0
    8.1710   11.0510   24.7490 C   0  0  0  0  0  0  0  0  0  0  0  0
    9.3380   11.7170   24.0470 C   0  0  1  0  0  0  0  0  0  0  0  0
   10.0480   10.8000   23.1800 O   0  0  0  0  0  0  0  0  0  0  0  0
    9.8280    9.4000   23.3150 C   0  0  0  0  0  0  0  0  0  0  0  0
  1  2  1  0
  2  3  1  0
  3  4  1  0
  4  5  2  0
  4  6  1  0
  7  6  1  1
  7  8  1  0
  8  9  1  0
  9 10  1  0
 10 11  1  0
 11 12  1  0
 12 13  1  6
 13 14  1  0
 12  7  1  0
A    1
 C1 
A    2
 N1 
A    3
 C2 
A    4
 C3 
A    5
 O1 
A    6
 N2 
A    7
 C4 
A    8
 C5 
A    9
 O2 
A   10
 C6 
A   11
 C7 
A   12
 C8 
A   13
 O3 
A   14
 C9 
M  END
>  <ref_url>  (21) 
nan

>  <submitter_name>  (21) 
nan

>  <submitter_email>  (21) 
nan

>  <submitter_institution>  (21) 
nan

>  <generation_date>  (21) 
nan

>  <method>  (21) 
nan

>  <ddG>  (21) 
-5.212321

>  <score>  (21) 
25.166297

>  <ref_mols>  (21) 
A71x0375b,A71x0922a

>  <original SMILES>  (21) 
CNCC(=O)N[C@@H]1COCC[C@H]1OC

>  <ref_pdb>  (21) 
A71x0310a

>  <butcher #BAD>  (21) 
0

>  <butcher #GOOD>  (21) 
14

>  <butcher #protein clash>  (21) 
0

>  <butcher #solvent space>  (21) 
0

>  <butcher #pocket>  (21) 
14

>  <butcher #P1>  (21) 
11

>  <butcher #P2>  (21) 
2

>  <butcher #P1'>  (21) 
1

>  <butcher #P2'>  (21) 
0

>  <butcher #P3>  (21) 
0

>  <butcher #P4>  (21) 
0

>  <butcher #P5>  (21) 
0

>  <butcher #P6>  (21) 
0

$$$$
Z2476332556
     RDKit          3D

 14 14  0  0  0  0  0  0  0  0999 V2000
   10.4800   15.0280   20.5250 C   0  0  0  0  0  0  0  0  0  0  0  0
   11.3600   15.5510   21.5270 O   0  0  0  0  0  0  0  0  0  0  0  0
   12.1940   14.5550   22.1480 C   0  0  0  0  0  0  0  0  0  0  0  0
   11.3930   13.7320   23.1260 C   0  0  0  0  0  0  0  0  0  0  0  0
   11.7620   13.5060   24.2820 O   0  0  0  0  0  0  0  0  0  0  0  0
   10.2210   13.2900   22.5340 N   0  0  0  0  0  0  0  0  0  0  0  0
    9.0260   12.8840   23.2670 C   0  0  2  0  0  0  0  0  0  0  0  0
    8.3690   13.9110   24.1680 C   0  0  0  0  0  0  0  0  0  0  0  0
    7.1080   13.2780   24.7960 C   0  0  0  0  0  0  0  0  0  0  0  0
    7.3150   11.9050   25.4530 C   0  0  0  0  0  0  0  0  0  0  0  0
    8.2340   10.9670   24.6850 C   0  0  0  0  0  0  0  0  0  0  0  0
    9.4180   11.6910   24.0820 C   0  0  1  0  0  0  0  0  0  0  0  0
   10.2650   10.8070   23.3160 O   0  0  0  0  0  0  0  0  0  0  0  0
    9.9130    9.4300   23.2130 C   0  0  0  0  0  0  0  0  0  0  0  0
  1  2  1  0
  2  3  1  0
  3  4  1  0
  4  5  2  0
  4  6  1  0
  7  6  1  1
  7  8  1  0
  8  9  1  0
  9 10  1  0
 10 11  1  0
 11 12  1  0
 12 13  1  6
 13 14  1  0
 12  7  1  0
A    1
 C1 
A    2
 O1 
A    3
 C2 
A    4
 C3 
A    5
 O2 
A    6
 N1 
A    7
 C4 
A    8
 C5 
A    9
 C6 
A   10
 C7 
A   11
 C8 
A   12
 C9 
A   13
 O3 
A   14
 C10
M  END
>  <ref_url>  (22) 
nan

>  <submitter_name>  (22) 
nan

>  <submitter_email>  (22) 
nan

>  <submitter_institution>  (22) 
nan

>  <generation_date>  (22) 
nan

>  <method>  (22) 
nan

>  <ddG>  (22) 
-6.722019

>  <score>  (22) 
19.75977

>  <ref_mols>  (22) 
A71x0375b,A71x0922a

>  <original SMILES>  (22) 
COCC(=O)N[C@@H]1CCCC[C@H]1OC

>  <ref_pdb>  (22) 
A71x0310a

>  <butcher #BAD>  (22) 
0

>  <butcher #GOOD>  (22) 
14

>  <butcher #protein clash>  (22) 
0

>  <butcher #solvent space>  (22) 
0

>  <butcher #pocket>  (22) 
14

>  <butcher #P1>  (22) 
11

>  <butcher #P2>  (22) 
2

>  <butcher #P1'>  (22) 
1

>  <butcher #P2'>  (22) 
0

>  <butcher #P3>  (22) 
0

>  <butcher #P4>  (22) 
0

>  <butcher #P5>  (22) 
0

>  <butcher #P6>  (22) 
0

$$$$
PV_006084490877
     RDKit          3D

 20 20  0  0  0  0  0  0  0  0999 V2000
    5.0370   14.6390   22.4210 C   0  0  0  0  0  0  0  0  0  0  0  0
    6.1780   14.7340   23.3020 N   0  0  0  0  0  0  0  0  0  0  0  0
    5.8950   15.5000   24.4990 C   0  0  0  0  0  0  0  0  0  0  0  0
    7.4000   14.1430   23.0170 C   0  0  0  0  0  0  0  0  0  0  0  0
    7.7870   13.9190   21.8710 O   0  0  0  0  0  0  0  0  0  0  0  0
    8.2960   13.7670   24.1950 C   0  0  0  0  0  0  0  0  0  0  0  0
    8.2650   12.3570   24.4340 N   0  0  0  0  0  0  0  0  0  0  0  0
    9.1710   11.4710   23.9000 C   0  0  0  0  0  0  0  0  0  0  0  0
   10.2120   11.7190   23.2940 O   0  0  0  0  0  0  0  0  0  0  0  0
    8.7100   10.0440   24.1680 C   0  0  0  0  0  0  0  0  0  0  0  0
    9.2290    9.1040   23.5950 O   0  0  0  0  0  0  0  0  0  0  0  0
    7.6860   10.0070   25.0950 N   0  0  0  0  0  0  0  0  0  0  0  0
    7.1210   11.2420   25.5720 C   0  0  0  0  0  0  0  0  0  0  0  0
    5.9190   11.0990   26.4880 C   0  0  0  0  0  0  0  0  0  0  0  0
    5.1130   12.0150   26.6160 O   0  0  0  0  0  0  0  0  0  0  0  0
    5.7780    9.9090   27.1720 N   0  0  0  0  0  0  0  0  0  0  0  0
    4.6290    9.7690   28.0880 C   0  0  0  0  0  0  0  0  0  0  0  0
    4.9700    9.0310   29.4320 C   0  0  0  0  0  0  0  0  0  0  0  0
    4.1170    7.9220   28.8780 C   0  0  0  0  0  0  0  0  0  0  0  0
    3.6220    8.6370   27.6480 C   0  0  0  0  0  0  0  0  0  0  0  0
  1  2  1  0
  2  3  1  0
  2  4  1  0
  4  5  2  0
  4  6  1  0
  6  7  1  0
  7  8  1  0
  8  9  2  0
  8 10  1  0
 10 11  2  0
 10 12  1  0
 12 13  1  0
 13 14  1  0
 14 15  2  0
 14 16  1  0
 16 17  1  0
 17 18  1  0
 18 19  1  0
 19 20  1  0
 20 17  1  0
A    1
 C1 
A    2
 N1 
A    3
 C2 
A    4
 C3 
A    5
 O1 
A    6
 C4 
A    7
 N2 
A    8
 C5 
A    9
 O2 
A   10
 C6 
A   11
 O3 
A   12
 N3 
A   13
 C7 
A   14
 C8 
A   15
 O4 
A   16
 N4 
A   17
 C9 
A   18
 C10
A   19
 C11
A   20
 C12
M  END
>  <ref_url>  (23) 
nan

>  <submitter_name>  (23) 
nan

>  <submitter_email>  (23) 
nan

>  <submitter_institution>  (23) 
nan

>  <generation_date>  (23) 
nan

>  <method>  (23) 
nan

>  <ddG>  (23) 
-5.233213

>  <score>  (23) 
113.917213

>  <ref_mols>  (23) 
A71x0556a,A71x0922a

>  <original SMILES>  (23) 
CN(C)C(=O)CNC(=O)C(=O)NCC(=O)NC1CCC1

>  <ref_pdb>  (23) 
A71x0310a

>  <butcher #BAD>  (23) 
6

>  <butcher #GOOD>  (23) 
14

>  <butcher #protein clash>  (23) 
0

>  <butcher #solvent space>  (23) 
6

>  <butcher #pocket>  (23) 
14

>  <butcher #P1>  (23) 
11

>  <butcher #P2>  (23) 
0

>  <butcher #P1'>  (23) 
0

>  <butcher #P2'>  (23) 
0

>  <butcher #P3>  (23) 
3

>  <butcher #P4>  (23) 
0

>  <butcher #P5>  (23) 
0

>  <butcher #P6>  (23) 
0

$$$$
PV_003259050977
     RDKit          3D

 22 23  0  0  0  0  0  0  0  0999 V2000
    9.9880    9.0720   22.4570 C   0  0  0  0  0  0  0  0  0  0  0  0
    9.7480   10.4430   22.1990 O   0  0  0  0  0  0  0  0  0  0  0  0
    9.8390   11.0310   23.4080 C   0  0  2  0  0  0  0  0  0  0  0  0
    8.6220   10.8250   24.2940 C   0  0  0  0  0  0  0  0  0  0  0  0
    7.8510   12.0660   24.2870 N   0  0  0  0  0  0  0  0  0  0  0  0
    7.1660   12.3180   25.5450 C   0  0  0  0  0  0  0  0  0  0  0  0
    6.5630   11.4420   26.1670 O   0  0  0  0  0  0  0  0  0  0  0  0
    7.1860   13.7010   26.2300 C   0  0  0  0  0  0  0  0  0  0  0  0
    7.1490   14.9120   25.2950 C   0  0  1  0  0  0  0  0  0  0  0  0
    7.0690   14.6100   23.8060 C   0  0  0  0  0  0  0  0  0  0  0  0
    5.9380   15.7600   25.6610 C   0  0  0  0  0  0  0  0  0  0  0  0
    4.7580   15.4380   24.7670 C   0  0  0  0  0  0  0  0  0  0  0  0
    3.4290   15.6320   25.4880 C   0  0  0  0  0  0  0  0  0  0  0  0
    3.4490   16.8730   26.3850 C   0  0  0  0  0  0  0  0  0  0  0  0
    4.4300   16.6600   27.5310 C   0  0  0  0  0  0  0  0  0  0  0  0
    5.5650   15.7070   27.1480 C   0  0  0  0  0  0  0  0  0  0  0  0
    8.5760   13.0390   23.4740 C   0  0  0  0  0  0  0  0  0  0  0  0
   10.0160   12.5570   23.5480 C   0  0  2  0  0  0  0  0  0  0  0  0
   10.9030   13.1670   22.5870 N   0  0  0  0  0  0  0  0  0  0  0  0
   11.9830   13.8380   23.1060 C   0  0  0  0  0  0  0  0  0  0  0  0
   12.5580   14.9040   22.2150 C   0  0  0  0  0  0  0  0  0  0  0  0
   12.4330   13.5910   24.2250 O   0  0  0  0  0  0  0  0  0  0  0  0
  1  2  1  0
  3  2  1  6
  3  4  1  0
  4  5  1  0
  5  6  1  0
  6  7  2  0
  6  8  1  0
  8  9  1  0
  9 10  1  6
  9 11  1  0
 11 12  1  0
 12 13  1  0
 13 14  1  0
 14 15  1  0
 15 16  1  0
  5 17  1  0
 17 18  1  0
 18 19  1  6
 19 20  1  0
 20 21  1  0
 20 22  2  0
 18  3  1  0
 16 11  1  0
A    1
 C1 
A    2
 O1 
A    3
 C2 
A    4
 C3 
A    5
 N1 
A    6
 C4 
A    7
 O2 
A    8
 C5 
A    9
 C6 
A   10
 C7 
A   11
 C8 
A   12
 C9 
A   13
 C10
A   14
 C11
A   15
 C12
A   16
 C13
A   17
 C14
A   18
 C15
A   19
 N2 
A   20
 C16
A   21
 C17
A   22
 O3 
M  END
>  <ref_url>  (24) 
nan

>  <submitter_name>  (24) 
nan

>  <submitter_email>  (24) 
nan

>  <submitter_institution>  (24) 
nan

>  <generation_date>  (24) 
nan

>  <method>  (24) 
nan

>  <ddG>  (24) 
-4.736025

>  <score>  (24) 
22.192764

>  <ref_mols>  (24) 
A71x0375b,A71x0739a

>  <original SMILES>  (24) 
CO[C@@H]1CN(C(=O)CC(C)C2CCCCC2)C[C@@H]1NC(C)=O

>  <ref_pdb>  (24) 
A71x0310a

>  <butcher #BAD>  (24) 
4

>  <butcher #GOOD>  (24) 
18

>  <butcher #protein clash>  (24) 
1

>  <butcher #solvent space>  (24) 
3

>  <butcher #pocket>  (24) 
18

>  <butcher #P1>  (24) 
13

>  <butcher #P2>  (24) 
0

>  <butcher #P1'>  (24) 
2

>  <butcher #P2'>  (24) 
0

>  <butcher #P3>  (24) 
3

>  <butcher #P4>  (24) 
0

>  <butcher #P5>  (24) 
0

>  <butcher #P6>  (24) 
0

$$$$
PV_000592599229
     RDKit          3D

 18 19  0  0  0  0  0  0  0  0999 V2000
   12.3710   14.6560   22.5130 C   0  0  0  0  0  0  0  0  0  0  0  0
   11.5780   13.7290   23.4400 C   0  0  0  0  0  0  0  0  0  0  0  0
   11.8890   13.5600   24.6110 O   0  0  0  0  0  0  0  0  0  0  0  0
   10.4540   13.0900   22.7710 N   0  0  0  0  0  0  0  0  0  0  0  0
    9.2220   12.8200   23.3590 C   0  0  2  0  0  0  0  0  0  0  0  0
    8.7350   13.7320   24.4770 C   0  0  0  0  0  0  0  0  0  0  0  0
    7.2940   13.4050   24.9310 C   0  0  0  0  0  0  0  0  0  0  0  0
    7.0600   12.0030   25.2430 N   0  0  0  0  0  0  0  0  0  0  0  0
    6.0450   11.6380   26.1660 C   0  0  0  0  0  0  0  0  0  0  0  0
    5.1110   12.6110   26.6020 O   0  0  0  0  0  0  0  0  0  0  0  0
    5.9120   10.2260   26.7120 C   0  0  0  0  0  0  0  0  0  0  0  0
    4.7360   10.0730   27.6830 C   0  0  0  0  0  0  0  0  0  0  0  0
    5.1760    9.4820   29.0540 C   0  0  0  0  0  0  0  0  0  0  0  0
    4.3500    8.2690   28.8540 C   0  0  0  0  0  0  0  0  0  0  0  0
    3.7920    8.7620   27.5210 C   0  0  0  0  0  0  0  0  0  0  0  0
    8.2030   11.1130   24.9980 C   0  0  0  0  0  0  0  0  0  0  0  0
    8.9850   11.3530   23.6960 C   0  0  2  0  0  0  0  0  0  0  0  0
   10.0700   10.3730   23.3150 C   0  0  0  0  0  0  0  0  0  0  0  0
  1  2  1  0
  2  3  2  0
  2  4  1  0
  5  4  1  1
  5  6  1  0
  6  7  1  0
  7  8  1  0
  8  9  1  0
  9 10  2  0
  9 11  1  0
 11 12  1  0
 12 13  1  0
 13 14  1  0
 14 15  1  0
  8 16  1  0
 16 17  1  0
 17 18  1  1
 17  5  1  0
 15 12  1  0
A    1
 C1 
A    2
 C2 
A    3
 O1 
A    4
 N1 
A    5
 C3 
A    6
 C4 
A    7
 C5 
A    8
 N2 
A    9
 C6 
A   10
 O2 
A   11
 C7 
A   12
 C8 
A   13
 C9 
A   14
 C10
A   15
 C11
A   16
 C12
A   17
 C13
A   18
 C14
M  END
>  <ref_url>  (25) 
nan

>  <submitter_name>  (25) 
nan

>  <submitter_email>  (25) 
nan

>  <submitter_institution>  (25) 
nan

>  <generation_date>  (25) 
nan

>  <method>  (25) 
nan

>  <ddG>  (25) 
-6.092451

>  <score>  (25) 
0.31229

>  <ref_mols>  (25) 
A71x0375b,A71x0556a

>  <original SMILES>  (25) 
CC(=O)NC1CCN(C(=O)CC2CCC2)CC1C

>  <ref_pdb>  (25) 
A71x0310a

>  <butcher #BAD>  (25) 
6

>  <butcher #GOOD>  (25) 
12

>  <butcher #protein clash>  (25) 
0

>  <butcher #solvent space>  (25) 
6

>  <butcher #pocket>  (25) 
12

>  <butcher #P1>  (25) 
10

>  <butcher #P2>  (25) 
0

>  <butcher #P1'>  (25) 
2

>  <butcher #P2'>  (25) 
0

>  <butcher #P3>  (25) 
0

>  <butcher #P4>  (25) 
0

>  <butcher #P5>  (25) 
0

>  <butcher #P6>  (25) 
0

$$$$
Z4469410687
     RDKit          3D

 17 18  0  0  0  0  0  0  0  0999 V2000
   12.3290   14.5540   22.0550 C   0  0  0  0  0  0  0  0  0  0  0  0
   11.3080   14.0640   23.0740 C   0  0  0  0  0  0  0  0  0  0  0  0
   11.9880   13.3900   24.2420 C   0  0  0  0  0  0  0  0  0  0  0  0
   10.1390   13.3410   22.5120 N   0  0  0  0  0  0  0  0  0  0  0  0
    8.9400   12.8860   23.2880 C   0  0  0  0  0  0  0  0  0  0  0  0
    9.2880   11.7350   24.1840 C   0  0  0  0  0  0  0  0  0  0  0  0
    8.0560   11.1120   24.8550 C   0  0  0  0  0  0  0  0  0  0  0  0
    7.1240   12.0430   25.5110 N   0  0  0  0  0  0  0  0  0  0  0  0
    5.9790   11.6540   26.2610 C   0  0  0  0  0  0  0  0  0  0  0  0
    5.1100   12.4690   26.5320 O   0  0  0  0  0  0  0  0  0  0  0  0
    5.8100   10.2200   26.7470 C   0  0  0  0  0  0  0  0  0  0  0  0
    4.8930    9.9930   27.9740 C   0  0  0  0  0  0  0  0  0  0  0  0
    3.5900    9.1460   27.7960 C   0  0  0  0  0  0  0  0  0  0  0  0
    3.8230    8.5820   29.2010 C   0  0  0  0  0  0  0  0  0  0  0  0
    5.3070    8.8350   28.9130 C   0  0  0  0  0  0  0  0  0  0  0  0
    7.0640   13.4140   24.9910 C   0  0  0  0  0  0  0  0  0  0  0  0
    8.2600   13.9220   24.1760 C   0  0  0  0  0  0  0  0  0  0  0  0
  1  2  1  0
  2  3  1  0
  2  4  1  0
  4  5  1  0
  5  6  1  0
  6  7  1  0
  7  8  1  0
  8  9  1  0
  9 10  2  0
  9 11  1  0
 11 12  1  0
 12 13  1  0
 13 14  1  0
 14 15  1  0
  8 16  1  0
 16 17  1  0
 17  5  1  0
 15 12  1  0
A    1
 C1 
A    2
 C2 
A    3
 C3 
A    4
 N1 
A    5
 C4 
A    6
 C5 
A    7
 C6 
A    8
 N2 
A    9
 C7 
A   10
 O1 
A   11
 C8 
A   12
 C9 
A   13
 C10
A   14
 C11
A   15
 C12
A   16
 C13
A   17
 C14
M  END
>  <ref_url>  (26) 
nan

>  <submitter_name>  (26) 
nan

>  <submitter_email>  (26) 
nan

>  <submitter_institution>  (26) 
nan

>  <generation_date>  (26) 
nan

>  <method>  (26) 
nan

>  <ddG>  (26) 
-5.384262

>  <score>  (26) 
-3.493923

>  <ref_mols>  (26) 
A71x0375b,A71x0556a

>  <original SMILES>  (26) 
CC(C)NC1CCN(C(=O)CC2CCC2)CC1

>  <ref_pdb>  (26) 
A71x0310a

>  <butcher #BAD>  (26) 
6

>  <butcher #GOOD>  (26) 
11

>  <butcher #protein clash>  (26) 
0

>  <butcher #solvent space>  (26) 
6

>  <butcher #pocket>  (26) 
11

>  <butcher #P1>  (26) 
10

>  <butcher #P2>  (26) 
0

>  <butcher #P1'>  (26) 
1

>  <butcher #P2'>  (26) 
0

>  <butcher #P3>  (26) 
0

>  <butcher #P4>  (26) 
0

>  <butcher #P5>  (26) 
0

>  <butcher #P6>  (26) 
0

$$$$
Z3500577009
     RDKit          3D

 17 18  0  0  0  0  0  0  0  0999 V2000
   12.3050   14.6240   22.1730 C   0  0  0  0  0  0  0  0  0  0  0  0
   11.2600   14.1960   23.2040 C   0  0  0  0  0  0  0  0  0  0  0  0
   11.8270   13.1110   24.0660 C   0  0  0  0  0  0  0  0  0  0  0  0
    9.9800   13.7270   22.6070 N   0  0  0  0  0  0  0  0  0  0  0  0
    8.8990   13.0070   23.3620 C   0  0  0  0  0  0  0  0  0  0  0  0
    9.3270   11.7830   24.1270 C   0  0  0  0  0  0  0  0  0  0  0  0
    8.1670   11.0030   24.7710 C   0  0  0  0  0  0  0  0  0  0  0  0
    7.2500   11.8060   25.5890 N   0  0  0  0  0  0  0  0  0  0  0  0
    6.1210   11.3470   26.3250 C   0  0  0  0  0  0  0  0  0  0  0  0
    5.1130   12.0410   26.3760 O   0  0  0  0  0  0  0  0  0  0  0  0
    6.0980   10.1410   27.0370 N   0  0  0  0  0  0  0  0  0  0  0  0
    5.1000    9.9740   28.1690 C   0  0  0  0  0  0  0  0  0  0  0  0
    3.7360    9.3370   27.8310 C   0  0  0  0  0  0  0  0  0  0  0  0
    3.7520    8.5980   29.0690 O   0  0  0  0  0  0  0  0  0  0  0  0
    5.1870    8.6680   28.9670 C   0  0  0  0  0  0  0  0  0  0  0  0
    7.0830   13.2050   25.1360 C   0  0  0  0  0  0  0  0  0  0  0  0
    8.2570   13.8930   24.4230 C   0  0  0  0  0  0  0  0  0  0  0  0
  1  2  1  0
  2  3  1  0
  2  4  1  0
  4  5  1  0
  5  6  1  0
  6  7  1  0
  7  8  1  0
  8  9  1  0
  9 10  2  0
  9 11  1  0
 11 12  1  0
 12 13  1  0
 13 14  1  0
 14 15  1  0
  8 16  1  0
 16 17  1  0
 17  5  1  0
 15 12  1  0
A    1
 C1 
A    2
 C2 
A    3
 C3 
A    4
 N1 
A    5
 C4 
A    6
 C5 
A    7
 C6 
A    8
 N2 
A    9
 C7 
A   10
 O1 
A   11
 N3 
A   12
 C8 
A   13
 C9 
A   14
 O2 
A   15
 C10
A   16
 C11
A   17
 C12
M  END
>  <ref_url>  (27) 
nan

>  <submitter_name>  (27) 
nan

>  <submitter_email>  (27) 
nan

>  <submitter_institution>  (27) 
nan

>  <generation_date>  (27) 
nan

>  <method>  (27) 
nan

>  <ddG>  (27) 
-4.921693

>  <score>  (27) 
15.685456

>  <ref_mols>  (27) 
A71x0375b,A71x0556a

>  <original SMILES>  (27) 
CC(C)NC1CCN(C(=O)NC2COC2)CC1

>  <ref_pdb>  (27) 
A71x0310a

>  <butcher #BAD>  (27) 
6

>  <butcher #GOOD>  (27) 
11

>  <butcher #protein clash>  (27) 
0

>  <butcher #solvent space>  (27) 
6

>  <butcher #pocket>  (27) 
11

>  <butcher #P1>  (27) 
10

>  <butcher #P2>  (27) 
0

>  <butcher #P1'>  (27) 
1

>  <butcher #P2'>  (27) 
0

>  <butcher #P3>  (27) 
0

>  <butcher #P4>  (27) 
0

>  <butcher #P5>  (27) 
0

>  <butcher #P6>  (27) 
0

$$$$
PV_003037897409
     RDKit          3D

 17 16  0  0  0  0  0  0  0  0999 V2000
   10.0520    9.6150   23.0720 C   0  0  0  0  0  0  0  0  0  0  0  0
   10.0780   10.9570   23.1480 C   0  0  0  0  0  0  0  0  0  0  0  0
    9.2710   11.7420   24.1170 C   0  0  2  0  0  0  0  0  0  0  0  0
    8.1150   10.9210   24.6730 C   0  0  0  0  0  0  0  0  0  0  0  0
    8.8410   13.0910   23.5190 C   0  0  2  0  0  0  0  0  0  0  0  0
   10.0160   13.8800   23.0450 N   0  0  0  0  0  0  0  0  0  0  0  0
   11.3150   13.7460   23.4810 C   0  0  0  0  0  0  0  0  0  0  0  0
   12.2100   13.9410   22.4790 N   0  0  0  0  0  0  0  0  0  0  0  0
   11.6820   13.5040   24.6170 O   0  0  0  0  0  0  0  0  0  0  0  0
    8.1380   13.8790   24.6670 C   0  0  0  0  0  0  0  0  0  0  0  0
    8.7690   14.6480   25.4080 O   0  0  0  0  0  0  0  0  0  0  0  0
    6.7910   13.6780   24.8900 N   0  0  0  0  0  0  0  0  0  0  0  0
    6.4120   12.4670   25.6090 C   0  0  0  0  0  0  0  0  0  0  0  0
    5.6920   14.5680   24.4490 C   0  0  0  0  0  0  0  0  0  0  0  0
    4.3980   14.4170   25.2720 C   0  0  0  0  0  0  0  0  0  0  0  0
    3.2220   14.4300   24.5770 N   0  0  0  0  0  0  0  0  0  0  0  0
    4.3880   14.2890   26.4950 O   0  0  0  0  0  0  0  0  0  0  0  0
  1  2  1  0
  2  3  1  0
  3  4  1  6
  3  5  1  0
  5  6  1  1
  6  7  1  0
  7  8  1  0
  7  9  2  0
  5 10  1  0
 10 11  2  0
 10 12  1  0
 12 13  1  0
 12 14  1  0
 14 15  1  0
 15 16  1  0
 15 17  2  0
A    1
 C1 
A    2
 C2 
A    3
 C3 
A    4
 C4 
A    5
 C5 
A    6
 N1 
A    7
 C6 
A    8
 N2 
A    9
 O1 
A   10
 C7 
A   11
 O2 
A   12
 N3 
A   13
 C8 
A   14
 C9 
A   15
 C10
A   16
 N4 
A   17
 O3 
M  END
>  <ref_url>  (28) 
nan

>  <submitter_name>  (28) 
nan

>  <submitter_email>  (28) 
nan

>  <submitter_institution>  (28) 
nan

>  <generation_date>  (28) 
nan

>  <method>  (28) 
nan

>  <ddG>  (28) 
-6.046081

>  <score>  (28) 
26.16824

>  <ref_mols>  (28) 
A71x0375b,A71x0719a

>  <original SMILES>  (28) 
CC[C@H](C)[C@H](NC(N)=O)C(=O)N(C)CC(N)=O

>  <ref_pdb>  (28) 
A71x0310a

>  <butcher #BAD>  (28) 
0

>  <butcher #GOOD>  (28) 
17

>  <butcher #protein clash>  (28) 
0

>  <butcher #solvent space>  (28) 
0

>  <butcher #pocket>  (28) 
17

>  <butcher #P1>  (28) 
13

>  <butcher #P2>  (28) 
0

>  <butcher #P1'>  (28) 
0

>  <butcher #P2'>  (28) 
0

>  <butcher #P3>  (28) 
4

>  <butcher #P4>  (28) 
0

>  <butcher #P5>  (28) 
0

>  <butcher #P6>  (28) 
0

$$$$
Z2042091027
     RDKit          3D

 15 15  0  0  0  0  0  0  0  0999 V2000
   12.5750   15.0650   22.1420 C   0  0  0  0  0  0  0  0  0  0  0  0
   11.8040   14.0600   22.9610 C   0  0  0  0  0  0  0  0  0  0  0  0
   10.5890   13.6600   22.2960 N   0  0  0  0  0  0  0  0  0  0  0  0
    9.4340   13.3420   23.0920 C   0  0  0  0  0  0  0  0  0  0  0  0
    8.3470   13.8970   23.2060 O   0  0  0  0  0  0  0  0  0  0  0  0
    9.6210   12.1210   23.9320 C   0  0  0  0  0  0  0  0  0  0  0  0
    8.4190   11.2920   23.9810 N   0  0  0  0  0  0  0  0  0  0  0  0
    8.8770    9.9000   23.8920 C   0  0  0  0  0  0  0  0  0  0  0  0
    9.9340    9.5040   22.8670 C   0  0  0  0  0  0  0  0  0  0  0  0
    7.6500   11.6200   25.1970 C   0  0  2  0  0  0  0  0  0  0  0  0
    6.6920   10.5580   25.7650 C   0  0  0  0  0  0  0  0  0  0  0  0
    5.4630   11.2240   26.1950 N   0  0  0  0  0  0  0  0  0  0  0  0
    5.7950   12.6300   26.3400 C   0  0  2  0  0  0  0  0  0  0  0  0
    4.5500   13.5100   26.2680 C   0  0  0  0  0  0  0  0  0  0  0  0
    6.8300   12.9140   25.2530 C   0  0  0  0  0  0  0  0  0  0  0  0
  1  2  1  0
  2  3  1  0
  3  4  1  0
  4  5  2  0
  4  6  1  0
  6  7  1  0
  7  8  1  0
  8  9  1  0
 10  7  1  6
 10 11  1  0
 11 12  1  0
 12 13  1  0
 13 14  1  6
 13 15  1  0
 15 10  1  0
A    1
 C1 
A    2
 C2 
A    3
 N1 
A    4
 C3 
A    5
 O1 
A    6
 C4 
A    7
 N2 
A    8
 C5 
A    9
 C6 
A   10
 C7 
A   11
 C8 
A   12
 N3 
A   13
 C9 
A   14
 C10
A   15
 C11
M  END
>  <ref_url>  (29) 
nan

>  <submitter_name>  (29) 
nan

>  <submitter_email>  (29) 
nan

>  <submitter_institution>  (29) 
nan

>  <generation_date>  (29) 
nan

>  <method>  (29) 
nan

>  <ddG>  (29) 
-5.91856

>  <score>  (29) 
-1.438314

>  <ref_mols>  (29) 
A71x0446a,A71x0375b

>  <original SMILES>  (29) 
CCNC(=O)CN(CC)C1CNC(C)C1

>  <ref_pdb>  (29) 
A71x0310a

>  <butcher #BAD>  (29) 
0

>  <butcher #GOOD>  (29) 
15

>  <butcher #protein clash>  (29) 
0

>  <butcher #solvent space>  (29) 
0

>  <butcher #pocket>  (29) 
15

>  <butcher #P1>  (29) 
13

>  <butcher #P2>  (29) 
0

>  <butcher #P1'>  (29) 
1

>  <butcher #P2'>  (29) 
0

>  <butcher #P3>  (29) 
1

>  <butcher #P4>  (29) 
0

>  <butcher #P5>  (29) 
0

>  <butcher #P6>  (29) 
0

$$$$
Z3442574373
     RDKit          3D

 17 17  0  0  0  0  0  0  0  0999 V2000
    9.7080    9.5000   23.1420 C   0  0  0  0  0  0  0  0  0  0  0  0
    9.0830   10.6620   23.9110 C   0  0  0  0  0  0  0  0  0  0  0  0
    9.5050   11.8050   23.8310 O   0  0  0  0  0  0  0  0  0  0  0  0
    7.9400   10.3140   24.7400 N   0  0  0  0  0  0  0  0  0  0  0  0
    7.3490   11.3950   25.5520 C   0  0  1  0  0  0  0  0  0  0  0  0
    7.1230   12.6640   24.7260 C   0  0  0  0  0  0  0  0  0  0  0  0
    7.5100   12.4770   23.3640 O   0  0  0  0  0  0  0  0  0  0  0  0
    7.4060   13.6460   22.5660 C   0  0  0  0  0  0  0  0  0  0  0  0
    6.5680   14.7050   23.2890 C   0  0  0  0  0  0  0  0  0  0  0  0
    8.8670   14.0160   22.3450 C   0  0  0  0  0  0  0  0  0  0  0  0
    6.0500   11.1470   26.3510 C   0  0  0  0  0  0  0  0  0  0  0  0
    5.0230   12.1310   26.3660 O   0  0  0  0  0  0  0  0  0  0  0  0
    5.8870    9.9870   27.0810 N   0  0  0  0  0  0  0  0  0  0  0  0
    4.7570    9.8890   28.0120 C   0  0  0  0  0  0  0  0  0  0  0  0
    5.0560    9.0850   29.2830 C   0  0  0  0  0  0  0  0  0  0  0  0
    4.1180    8.0430   28.8630 C   0  0  0  0  0  0  0  0  0  0  0  0
    3.6670    8.7650   27.6190 C   0  0  0  0  0  0  0  0  0  0  0  0
  1  2  1  0
  2  3  2  0
  2  4  1  0
  4  5  1  0
  5  6  1  6
  6  7  1  0
  7  8  1  0
  8  9  1  0
  8 10  1  0
  5 11  1  0
 11 12  2  0
 11 13  1  0
 13 14  1  0
 14 15  1  0
 15 16  1  0
 16 17  1  0
 17 14  1  0
A    1
 C1 
A    2
 C2 
A    3
 O1 
A    4
 N1 
A    5
 C3 
A    6
 C4 
A    7
 O2 
A    8
 C5 
A    9
 C6 
A   10
 C7 
A   11
 C8 
A   12
 O3 
A   13
 N2 
A   14
 C9 
A   15
 C10
A   16
 C11
A   17
 C12
M  END
>  <ref_url>  (30) 
nan

>  <submitter_name>  (30) 
nan

>  <submitter_email>  (30) 
nan

>  <submitter_institution>  (30) 
nan

>  <generation_date>  (30) 
nan

>  <method>  (30) 
nan

>  <ddG>  (30) 
-7.614098

>  <score>  (30) 
-0.767906

>  <ref_mols>  (30) 
A71x1080a,A71x0556a

>  <original SMILES>  (30) 
CC(=O)NC(COC(C)C)C(=O)NC1CCC1

>  <ref_pdb>  (30) 
A71x0310a

>  <butcher #BAD>  (30) 
6

>  <butcher #GOOD>  (30) 
11

>  <butcher #protein clash>  (30) 
0

>  <butcher #solvent space>  (30) 
6

>  <butcher #pocket>  (30) 
11

>  <butcher #P1>  (30) 
10

>  <butcher #P2>  (30) 
0

>  <butcher #P1'>  (30) 
0

>  <butcher #P2'>  (30) 
0

>  <butcher #P3>  (30) 
1

>  <butcher #P4>  (30) 
0

>  <butcher #P5>  (30) 
0

>  <butcher #P6>  (30) 
0

$$$$
Z3877272214
     RDKit          3D

 17 17  0  0  0  0  0  0  0  0999 V2000
   10.0450    8.6120   23.0010 C   0  0  0  0  0  0  0  0  0  0  0  0
   10.0280   10.1040   23.1050 C   0  0  0  0  0  0  0  0  0  0  0  0
    9.0120   10.6210   24.1020 C   0  0  2  0  0  0  0  0  0  0  0  0
    7.9960    9.6500   24.2730 O   0  0  0  0  0  0  0  0  0  0  0  0
    8.4870   12.0210   23.8340 C   0  0  0  0  0  0  0  0  0  0  0  0
    7.2020   12.2450   24.5000 N   0  0  0  0  0  0  0  0  0  0  0  0
    7.0110   13.6840   24.8170 C   0  0  0  0  0  0  0  0  0  0  0  0
    6.5810   14.5190   23.5940 C   0  0  0  0  0  0  0  0  0  0  0  0
    6.9460   11.2790   25.5940 C   0  0  0  0  0  0  0  0  0  0  0  0
    7.5930   10.2740   25.7660 O   0  0  0  0  0  0  0  0  0  0  0  0
    5.7910   11.4990   26.5810 C   0  0  0  0  0  0  0  0  0  0  0  0
    4.9910   12.4020   26.4460 O   0  0  0  0  0  0  0  0  0  0  0  0
    5.7670   10.5790   27.6310 N   0  0  0  0  0  0  0  0  0  0  0  0
    4.8290    9.4590   27.6290 C   0  0  0  0  0  0  0  0  0  0  0  0
    5.0240    8.4490   28.7450 C   0  0  0  0  0  0  0  0  0  0  0  0
    3.6530    8.5460   29.2280 C   0  0  0  0  0  0  0  0  0  0  0  0
    3.3370    9.6440   28.2270 C   0  0  0  0  0  0  0  0  0  0  0  0
  1  2  1  0
  2  3  1  0
  3  4  1  6
  3  5  1  0
  5  6  1  0
  6  7  1  0
  7  8  1  0
  6  9  1  0
  9 10  2  0
  9 11  1  0
 11 12  2  0
 11 13  1  0
 13 14  1  0
 14 15  1  0
 15 16  1  0
 16 17  1  0
 17 14  1  0
A    1
 C1 
A    2
 C2 
A    3
 C3 
A    4
 O1 
A    5
 C4 
A    6
 N1 
A    7
 C5 
A    8
 C6 
A    9
 C7 
A   10
 O2 
A   11
 C8 
A   12
 O3 
A   13
 N2 
A   14
 C9 
A   15
 C10
A   16
 C11
A   17
 C12
M  END
>  <ref_url>  (31) 
nan

>  <submitter_name>  (31) 
nan

>  <submitter_email>  (31) 
nan

>  <submitter_institution>  (31) 
nan

>  <generation_date>  (31) 
nan

>  <method>  (31) 
nan

>  <ddG>  (31) 
-4.10452

>  <score>  (31) 
9.999992

>  <ref_mols>  (31) 
A71x1080a,A71x0556a

>  <original SMILES>  (31) 
CC[C@H](O)CN(CC)C(=O)C(=O)NC1CCC1

>  <ref_pdb>  (31) 
A71x0310a

>  <butcher #BAD>  (31) 
6

>  <butcher #GOOD>  (31) 
11

>  <butcher #protein clash>  (31) 
0

>  <butcher #solvent space>  (31) 
6

>  <butcher #pocket>  (31) 
11

>  <butcher #P1>  (31) 
10

>  <butcher #P2>  (31) 
0

>  <butcher #P1'>  (31) 
0

>  <butcher #P2'>  (31) 
0

>  <butcher #P3>  (31) 
1

>  <butcher #P4>  (31) 
0

>  <butcher #P5>  (31) 
0

>  <butcher #P6>  (31) 
0

$$$$
PV_003586610715
     RDKit          3D

 18 19  0  0  0  0  0  0  0  0999 V2000
   13.2920   13.9880   24.1170 C   0  0  0  0  0  0  0  0  0  0  0  0
   12.1280   13.2080   24.3230 O   0  0  0  0  0  0  0  0  0  0  0  0
   10.9270   13.8730   23.9440 C   0  0  2  0  0  0  0  0  0  0  0  0
   10.3020   14.4430   25.2400 C   0  0  0  0  0  0  0  0  0  0  0  0
    8.8730   14.0240   25.2750 N   0  0  0  0  0  0  0  0  0  0  0  0
    7.7180   14.7970   25.2020 C   0  0  0  0  0  0  0  0  0  0  0  0
    6.9940   14.8240   23.9640 O   0  0  0  0  0  0  0  0  0  0  0  0
    7.2150   15.6310   26.4160 C   0  0  2  0  0  0  0  0  0  0  0  0
    8.4170   15.8940   27.3030 C   0  0  0  0  0  0  0  0  0  0  0  0
    7.6810   16.4840   28.5010 C   0  0  0  0  0  0  0  0  0  0  0  0
    6.2690   15.8810   28.4650 C   0  0  0  0  0  0  0  0  0  0  0  0
    6.2670   15.0300   27.3030 O   0  0  0  0  0  0  0  0  0  0  0  0
    8.8150   12.7990   24.5230 C   0  0  0  0  0  0  0  0  0  0  0  0
    9.7980   12.9620   23.3720 C   0  0  2  0  0  0  0  0  0  0  0  0
   10.2050   11.6390   22.8920 N   0  0  0  0  0  0  0  0  0  0  0  0
    9.5650   10.4950   23.3650 C   0  0  0  0  0  0  0  0  0  0  0  0
   10.0380    9.2090   22.7270 C   0  0  0  0  0  0  0  0  0  0  0  0
    8.6770   10.4920   24.2230 O   0  0  0  0  0  0  0  0  0  0  0  0
  1  2  1  0
  3  2  1  1
  3  4  1  0
  4  5  1  0
  5  6  1  0
  6  7  2  0
  8  6  1  6
  8  9  1  0
  9 10  1  0
 10 11  1  0
 11 12  1  0
  5 13  1  0
 13 14  1  0
 14 15  1  1
 15 16  1  0
 16 17  1  0
 16 18  2  0
 14  3  1  0
 12  8  1  0
A    1
 C1 
A    2
 O1 
A    3
 C2 
A    4
 C3 
A    5
 N1 
A    6
 C4 
A    7
 O2 
A    8
 C5 
A    9
 C6 
A   10
 C7 
A   11
 C8 
A   12
 O3 
A   13
 C9 
A   14
 C10
A   15
 N2 
A   16
 C11
A   17
 C12
A   18
 O4 
M  END
>  <ref_url>  (32) 
nan

>  <submitter_name>  (32) 
nan

>  <submitter_email>  (32) 
nan

>  <submitter_institution>  (32) 
nan

>  <generation_date>  (32) 
nan

>  <method>  (32) 
nan

>  <ddG>  (32) 
-6.177737

>  <score>  (32) 
1.160268

>  <ref_mols>  (32) 
A71x0375b,A71x0416a

>  <original SMILES>  (32) 
CO[C@@H]1CN(C(=O)[C@@H]2CCCO2)C[C@H]1NC(C)=O

>  <ref_pdb>  (32) 
A71x0310a

>  <butcher #BAD>  (32) 
5

>  <butcher #GOOD>  (32) 
13

>  <butcher #protein clash>  (32) 
0

>  <butcher #solvent space>  (32) 
5

>  <butcher #pocket>  (32) 
13

>  <butcher #P1>  (32) 
11

>  <butcher #P2>  (32) 
0

>  <butcher #P1'>  (32) 
2

>  <butcher #P2'>  (32) 
0

>  <butcher #P3>  (32) 
0

>  <butcher #P4>  (32) 
0

>  <butcher #P5>  (32) 
0

>  <butcher #P6>  (32) 
0

$$$$
PV_003670626363
     RDKit          3D

 18 18  0  0  0  0  0  0  0  0999 V2000
   11.9730   13.8270   24.4320 C   0  0  0  0  0  0  0  0  0  0  0  0
   11.2670   13.9750   23.1020 C   0  0  0  0  0  0  0  0  0  0  0  0
   10.0560   13.0470   22.9240 C   0  0  2  0  0  0  0  0  0  0  0  0
    8.6620   13.5690   23.3630 C   0  0  0  0  0  0  0  0  0  0  0  0
    8.2550   13.8760   24.7700 N   0  0  0  0  0  0  0  0  0  0  0  0
    7.9940   12.6660   25.5480 C   0  0  0  0  0  0  0  0  0  0  0  0
    6.7760   11.8030   25.2390 C   0  0  0  0  0  0  0  0  0  0  0  0
    7.2610   14.8470   24.9480 C   0  0  0  0  0  0  0  0  0  0  0  0
    6.5350   15.1050   23.9950 O   0  0  0  0  0  0  0  0  0  0  0  0
    7.0630   15.6140   26.2650 C   0  0  2  0  0  0  0  0  0  0  0  0
    8.3150   15.8170   27.1130 C   0  0  0  0  0  0  0  0  0  0  0  0
    7.7930   16.3000   28.4620 C   0  0  0  0  0  0  0  0  0  0  0  0
    6.3180   15.8670   28.4380 C   0  0  0  0  0  0  0  0  0  0  0  0
    6.1540   15.0700   27.2370 O   0  0  0  0  0  0  0  0  0  0  0  0
   10.3480   11.7790   23.4260 N   0  0  0  0  0  0  0  0  0  0  0  0
    9.4880   10.7020   23.5180 C   0  0  0  0  0  0  0  0  0  0  0  0
    9.9840    9.4480   22.8560 C   0  0  0  0  0  0  0  0  0  0  0  0
    8.4160   10.7260   24.1030 O   0  0  0  0  0  0  0  0  0  0  0  0
  1  2  1  0
  3  2  1  1
  3  4  1  0
  4  5  1  0
  5  6  1  0
  6  7  1  0
  5  8  1  0
  8  9  2  0
 10  8  1  6
 10 11  1  0
 11 12  1  0
 12 13  1  0
 13 14  1  0
  3 15  1  0
 15 16  1  0
 16 17  1  0
 16 18  2  0
 14 10  1  0
A    1
 C1 
A    2
 C2 
A    3
 C3 
A    4
 C4 
A    5
 N1 
A    6
 C5 
A    7
 C6 
A    8
 C7 
A    9
 O1 
A   10
 C8 
A   11
 C9 
A   12
 C10
A   13
 C11
A   14
 O2 
A   15
 N2 
A   16
 C12
A   17
 C13
A   18
 O3 
M  END
>  <ref_url>  (33) 
nan

>  <submitter_name>  (33) 
nan

>  <submitter_email>  (33) 
nan

>  <submitter_institution>  (33) 
nan

>  <generation_date>  (33) 
nan

>  <method>  (33) 
nan

>  <ddG>  (33) 
-6.909899

>  <score>  (33) 
6.239245

>  <ref_mols>  (33) 
A71x0375b,A71x0416a

>  <original SMILES>  (33) 
CC[C@@H](CN(CC)C(=O)[C@@H]1CCCO1)NC(C)=O

>  <ref_pdb>  (33) 
A71x0310a

>  <butcher #BAD>  (33) 
5

>  <butcher #GOOD>  (33) 
13

>  <butcher #protein clash>  (33) 
0

>  <butcher #solvent space>  (33) 
5

>  <butcher #pocket>  (33) 
13

>  <butcher #P1>  (33) 
11

>  <butcher #P2>  (33) 
0

>  <butcher #P1'>  (33) 
1

>  <butcher #P2'>  (33) 
0

>  <butcher #P3>  (33) 
1

>  <butcher #P4>  (33) 
0

>  <butcher #P5>  (33) 
0

>  <butcher #P6>  (33) 
0

$$$$
PV_003359634839
     RDKit          3D

 18 19  0  0  0  0  0  0  0  0999 V2000
   12.3440   15.3770   22.3940 C   0  0  0  0  0  0  0  0  0  0  0  0
   11.7030   14.0060   22.2620 C   0  0  0  0  0  0  0  0  0  0  0  0
   11.0020   13.5830   23.5410 C   0  0  0  0  0  0  0  0  0  0  0  0
   10.8470   14.3230   24.4950 O   0  0  0  0  0  0  0  0  0  0  0  0
   10.5940   12.2690   23.5520 N   0  0  0  0  0  0  0  0  0  0  0  0
    9.2140   11.8110   23.4860 C   0  0  1  0  0  0  0  0  0  0  0  0
    9.0970   10.3060   23.7760 C   0  0  0  0  0  0  0  0  0  0  0  0
    8.0470   10.2120   24.8660 C   0  0  0  0  0  0  0  0  0  0  0  0
    7.2770   11.4180   24.8960 N   0  0  0  0  0  0  0  0  0  0  0  0
    6.1900   11.4800   25.7930 C   0  0  0  0  0  0  0  0  0  0  0  0
    5.5590   12.5140   25.9560 O   0  0  0  0  0  0  0  0  0  0  0  0
    5.8240   10.1880   26.5380 C   0  0  0  0  0  0  0  0  0  0  0  0
    4.8600   10.1570   27.7570 C   0  0  0  0  0  0  0  0  0  0  0  0
    5.4040    9.2320   28.8620 C   0  0  0  0  0  0  0  0  0  0  0  0
    3.9970    8.7080   29.1590 C   0  0  0  0  0  0  0  0  0  0  0  0
    3.6460    9.1570   27.7410 C   0  0  0  0  0  0  0  0  0  0  0  0
    7.9950   12.5040   24.1980 C   0  0  1  0  0  0  0  0  0  0  0  0
    8.3370   13.6510   25.1380 C   0  0  0  0  0  0  0  0  0  0  0  0
  1  2  1  0
  2  3  1  0
  3  4  2  0
  3  5  1  0
  6  5  1  1
  6  7  1  0
  7  8  1  0
  8  9  1  0
  9 10  1  0
 10 11  2  0
 10 12  1  0
 12 13  1  0
 13 14  1  0
 14 15  1  0
 15 16  1  0
  9 17  1  0
 17 18  1  1
 17  6  1  0
 16 13  1  0
A    1
 C1 
A    2
 C2 
A    3
 C3 
A    4
 O1 
A    5
 N1 
A    6
 C4 
A    7
 C5 
A    8
 C6 
A    9
 N2 
A   10
 C7 
A   11
 O2 
A   12
 C8 
A   13
 C9 
A   14
 C10
A   15
 C11
A   16
 C12
A   17
 C13
A   18
 C14
M  END
>  <ref_url>  (34) 
nan

>  <submitter_name>  (34) 
nan

>  <submitter_email>  (34) 
nan

>  <submitter_institution>  (34) 
nan

>  <generation_date>  (34) 
nan

>  <method>  (34) 
nan

>  <ddG>  (34) 
-4.549519

>  <score>  (34) 
-8.793961

>  <ref_mols>  (34) 
A71x0375b,A71x0556a

>  <original SMILES>  (34) 
CCC(=O)N[C@H]1CCN(C(=O)CC2CCC2)[C@H]1C

>  <ref_pdb>  (34) 
A71x0310a

>  <butcher #BAD>  (34) 
4

>  <butcher #GOOD>  (34) 
14

>  <butcher #protein clash>  (34) 
0

>  <butcher #solvent space>  (34) 
4

>  <butcher #pocket>  (34) 
14

>  <butcher #P1>  (34) 
13

>  <butcher #P2>  (34) 
0

>  <butcher #P1'>  (34) 
1

>  <butcher #P2'>  (34) 
0

>  <butcher #P3>  (34) 
0

>  <butcher #P4>  (34) 
0

>  <butcher #P5>  (34) 
0

>  <butcher #P6>  (34) 
0

$$$$
PV_003892415992
     RDKit          3D

 20 21  0  0  0  0  0  0  0  0999 V2000
   12.4600   15.2780   22.3230 C   0  0  0  0  0  0  0  0  0  0  0  0
   12.2740   13.9560   22.4330 C   0  0  0  0  0  0  0  0  0  0  0  0
   11.2190   13.3710   23.3250 C   0  0  0  0  0  0  0  0  0  0  0  0
   11.1050   13.9940   24.3680 O   0  0  0  0  0  0  0  0  0  0  0  0
   10.5300   12.2520   22.8950 N   0  0  0  0  0  0  0  0  0  0  0  0
    9.1950   11.9630   23.4000 C   0  0  0  0  0  0  0  0  0  0  0  0
    8.9470   10.4880   23.7490 C   0  0  1  0  0  0  0  0  0  0  0  0
   10.0630    9.5120   23.3750 C   0  0  0  0  0  0  0  0  0  0  0  0
    8.0030   10.3020   24.9560 C   0  0  0  0  0  0  0  0  0  0  0  0
    7.0770   11.3000   25.2270 N   0  0  0  0  0  0  0  0  0  0  0  0
    5.8650   11.1880   26.0830 C   0  0  0  0  0  0  0  0  0  0  0  0
    5.0950   12.1300   26.2210 O   0  0  0  0  0  0  0  0  0  0  0  0
    5.5860    9.8430   26.7790 C   0  0  0  0  0  0  0  0  0  0  0  0
    4.5570   10.2880   27.8270 C   0  0  0  0  0  0  0  0  0  0  0  0
    5.2880    9.4340   28.8820 C   0  0  0  0  0  0  0  0  0  0  0  0
    4.1440    8.5170   29.0510 C   0  0  0  0  0  0  0  0  0  0  0  0
    3.2910    9.3130   28.0620 C   0  0  0  0  0  0  0  0  0  0  0  0
    7.5940   12.6220   25.3540 C   0  0  0  0  0  0  0  0  0  0  0  0
    8.6080   13.0400   24.3210 C   0  0  2  0  0  0  0  0  0  0  0  0
    7.8510   14.0590   23.4990 C   0  0  0  0  0  0  0  0  0  0  0  0
  1  2  1  0
  2  3  1  0
  3  4  2  0
  3  5  1  0
  5  6  1  0
  6  7  1  0
  7  8  1  1
  7  9  1  0
  9 10  1  0
 10 11  1  0
 11 12  2  0
 11 13  1  0
 13 14  1  0
 14 15  1  0
 15 16  1  0
 16 17  1  0
 10 18  1  0
 18 19  1  0
 19 20  1  6
 19  6  1  0
 17 14  1  0
A    1
 C1 
A    2
 C2 
A    3
 C3 
A    4
 O1 
A    5
 N1 
A    6
 C4 
A    7
 C5 
A    8
 C6 
A    9
 C7 
A   10
 N2 
A   11
 C8 
A   12
 O2 
A   13
 C9 
A   14
 C10
A   15
 C11
A   16
 C12
A   17
 C13
A   18
 C14
A   19
 C15
A   20
 C16
M  END
>  <ref_url>  (35) 
nan

>  <submitter_name>  (35) 
nan

>  <submitter_email>  (35) 
nan

>  <submitter_institution>  (35) 
nan

>  <generation_date>  (35) 
nan

>  <method>  (35) 
nan

>  <ddG>  (35) 
-6.485402

>  <score>  (35) 
-7.624482

>  <ref_mols>  (35) 
A71x0375b,A71x0556a

>  <original SMILES>  (35) 
CCC(=O)NC1C(C)CN(C(=O)CC2CCC2)CC1C

>  <ref_pdb>  (35) 
A71x0310a

>  <butcher #BAD>  (35) 
6

>  <butcher #GOOD>  (35) 
14

>  <butcher #protein clash>  (35) 
0

>  <butcher #solvent space>  (35) 
6

>  <butcher #pocket>  (35) 
14

>  <butcher #P1>  (35) 
12

>  <butcher #P2>  (35) 
0

>  <butcher #P1'>  (35) 
2

>  <butcher #P2'>  (35) 
0

>  <butcher #P3>  (35) 
0

>  <butcher #P4>  (35) 
0

>  <butcher #P5>  (35) 
0

>  <butcher #P6>  (35) 
0

$$$$
PV_003066734087
     RDKit          3D

 20 21  0  0  0  0  0  0  0  0999 V2000
    9.3970    9.4180   23.1950 C   0  0  0  0  0  0  0  0  0  0  0  0
    8.8440   10.5370   24.0870 C   0  0  2  0  0  0  0  0  0  0  0  0
    7.6680   10.2010   25.0490 C   0  0  0  0  0  0  0  0  0  0  0  0
    6.7390   11.2500   25.4940 N   0  0  0  0  0  0  0  0  0  0  0  0
    5.6680   11.0170   26.4600 C   0  0  0  0  0  0  0  0  0  0  0  0
    4.8350   11.9310   26.5360 O   0  0  0  0  0  0  0  0  0  0  0  0
    5.4160    9.8210   27.4450 C   0  0  0  0  0  0  0  0  0  0  0  0
    5.2920    9.9220   28.9840 C   0  0  0  0  0  0  0  0  0  0  0  0
    4.5500    8.5670   28.9520 C   0  0  0  0  0  0  0  0  0  0  0  0
    4.1330    8.9340   27.5300 C   0  0  0  0  0  0  0  0  0  0  0  0
    7.3140   12.5630   25.4890 C   0  0  0  0  0  0  0  0  0  0  0  0
    8.0880   13.0070   24.2610 C   0  0  1  0  0  0  0  0  0  0  0  0
    8.9540   14.1560   24.6580 C   0  0  0  0  0  0  0  0  0  0  0  0
    8.8880   11.9480   23.4990 C   0  0  0  0  0  0  0  0  0  0  0  0
   10.2060   12.3140   22.9210 N   0  0  0  0  0  0  0  0  0  0  0  0
   11.0470   13.3060   23.3800 C   0  0  0  0  0  0  0  0  0  0  0  0
   11.1890   13.6100   24.5530 O   0  0  0  0  0  0  0  0  0  0  0  0
   11.7900   13.9830   22.2540 C   0  0  0  0  0  0  0  0  0  0  0  0
   12.5470   15.1910   22.7460 C   0  0  0  0  0  0  0  0  0  0  0  0
   11.9330   16.3120   22.2950 F   0  0  0  0  0  0  0  0  0  0  0  0
  2  1  1  6
  2  3  1  0
  3  4  1  0
  4  5  1  0
  5  6  2  0
  5  7  1  0
  7  8  1  0
  8  9  1  0
  9 10  1  0
  4 11  1  0
 11 12  1  0
 12 13  1  1
 12 14  1  0
 14 15  1  0
 15 16  1  0
 16 17  2  0
 16 18  1  0
 18 19  1  0
 19 20  1  0
 14  2  1  0
 10  7  1  0
A    1
 C1 
A    2
 C2 
A    3
 C3 
A    4
 N1 
A    5
 C4 
A    6
 O1 
A    7
 C5 
A    8
 C6 
A    9
 C7 
A   10
 C8 
A   11
 C9 
A   12
 C10
A   13
 C11
A   14
 C12
A   15
 N2 
A   16
 C13
A   17
 O2 
A   18
 C14
A   19
 C15
A   20
 F1 
M  END
>  <ref_url>  (36) 
nan

>  <submitter_name>  (36) 
nan

>  <submitter_email>  (36) 
nan

>  <submitter_institution>  (36) 
nan

>  <generation_date>  (36) 
nan

>  <method>  (36) 
nan

>  <ddG>  (36) 
-4.244446

>  <score>  (36) 
-0.268253

>  <ref_mols>  (36) 
A71x0375b,A71x0556a

>  <original SMILES>  (36) 
CC1CN(C(=O)C2CCC2)CC(C)C1NC(=O)CCF

>  <ref_pdb>  (36) 
A71x0310a

>  <butcher #BAD>  (36) 
5

>  <butcher #GOOD>  (36) 
15

>  <butcher #protein clash>  (36) 
0

>  <butcher #solvent space>  (36) 
5

>  <butcher #pocket>  (36) 
15

>  <butcher #P1>  (36) 
13

>  <butcher #P2>  (36) 
1

>  <butcher #P1'>  (36) 
1

>  <butcher #P2'>  (36) 
0

>  <butcher #P3>  (36) 
0

>  <butcher #P4>  (36) 
0

>  <butcher #P5>  (36) 
0

>  <butcher #P6>  (36) 
0

$$$$
PV_002720551787
     RDKit          3D

 19 20  0  0  0  0  0  0  0  0999 V2000
   10.2360    9.4170   23.2870 C   0  0  0  0  0  0  0  0  0  0  0  0
    9.0090   10.2650   23.5530 C   0  0  1  0  0  0  0  0  0  0  0  0
    8.1660   10.1420   24.8050 C   0  0  0  0  0  0  0  0  0  0  0  0
    7.3980   11.3370   24.8760 N   0  0  0  0  0  0  0  0  0  0  0  0
    6.3120   11.4350   25.7650 C   0  0  0  0  0  0  0  0  0  0  0  0
    5.5350   12.5990   25.9940 O   0  0  0  0  0  0  0  0  0  0  0  0
    5.8740   10.1820   26.5540 C   0  0  0  0  0  0  0  0  0  0  0  0
    4.9290   10.2590   27.7680 C   0  0  0  0  0  0  0  0  0  0  0  0
    3.9680    9.0660   27.6170 C   0  0  0  0  0  0  0  0  0  0  0  0
    4.4270    8.4240   28.8450 C   0  0  0  0  0  0  0  0  0  0  0  0
    5.4160    9.5560   29.1400 C   0  0  0  0  0  0  0  0  0  0  0  0
    8.2950   12.4280   24.4970 C   0  0  0  0  0  0  0  0  0  0  0  0
    9.0800   11.8040   23.3280 C   0  0  1  0  0  0  0  0  0  0  0  0
   10.3770   12.2700   22.8720 N   0  0  0  0  0  0  0  0  0  0  0  0
   11.0010   13.3980   23.3290 C   0  0  0  0  0  0  0  0  0  0  0  0
   10.7990   13.8970   24.4270 O   0  0  0  0  0  0  0  0  0  0  0  0
   11.9740   13.9480   22.2730 C   0  0  0  0  0  0  0  0  0  0  0  0
   12.6250   15.2030   22.8420 C   0  0  0  0  0  0  0  0  0  0  0  0
   11.9800   16.2810   22.3270 F   0  0  0  0  0  0  0  0  0  0  0  0
  2  1  1  1
  2  3  1  0
  3  4  1  0
  4  5  1  0
  5  6  2  0
  5  7  1  0
  7  8  1  0
  8  9  1  0
  9 10  1  0
 10 11  1  0
  4 12  1  0
 12 13  1  0
 13 14  1  1
 14 15  1  0
 15 16  2  0
 15 17  1  0
 17 18  1  0
 18 19  1  0
 13  2  1  0
 11  8  1  0
A    1
 C1 
A    2
 C2 
A    3
 C3 
A    4
 N1 
A    5
 C4 
A    6
 O1 
A    7
 C5 
A    8
 C6 
A    9
 C7 
A   10
 C8 
A   11
 C9 
A   12
 C10
A   13
 C11
A   14
 N2 
A   15
 C12
A   16
 O2 
A   17
 C13
A   18
 C14
A   19
 F1 
M  END
>  <ref_url>  (37) 
nan

>  <submitter_name>  (37) 
nan

>  <submitter_email>  (37) 
nan

>  <submitter_institution>  (37) 
nan

>  <generation_date>  (37) 
nan

>  <method>  (37) 
nan

>  <ddG>  (37) 
-4.09888

>  <score>  (37) 
-0.867411

>  <ref_mols>  (37) 
A71x0375b,A71x0556a

>  <original SMILES>  (37) 
C[C@H]1CN(C(=O)CC2CCC2)C[C@H]1NC(=O)CCF

>  <ref_pdb>  (37) 
A71x0310a

>  <butcher #BAD>  (37) 
5

>  <butcher #GOOD>  (37) 
14

>  <butcher #protein clash>  (37) 
0

>  <butcher #solvent space>  (37) 
5

>  <butcher #pocket>  (37) 
14

>  <butcher #P1>  (37) 
12

>  <butcher #P2>  (37) 
1

>  <butcher #P1'>  (37) 
1

>  <butcher #P2'>  (37) 
0

>  <butcher #P3>  (37) 
0

>  <butcher #P4>  (37) 
0

>  <butcher #P5>  (37) 
0

>  <butcher #P6>  (37) 
0

$$$$
Z5275778979
     RDKit          3D

 17 18  0  0  0  0  0  0  0  0999 V2000
    4.5660   15.0670   24.6850 C   0  0  0  0  0  0  0  0  0  0  0  0
    5.2520   13.9240   25.2060 O   0  0  0  0  0  0  0  0  0  0  0  0
    5.4990   13.9400   26.5430 C   0  0  0  0  0  0  0  0  0  0  0  0
    4.6950   14.2180   27.4260 O   0  0  0  0  0  0  0  0  0  0  0  0
    6.9550   13.5500   26.7960 C   0  0  2  0  0  0  0  0  0  0  0  0
    7.7480   13.3510   25.4840 C   0  0  0  0  0  0  0  0  0  0  0  0
    8.0470   11.9080   25.0320 C   0  0  0  0  0  0  0  0  0  0  0  0
    9.1590   11.6630   24.0130 C   0  0  0  0  0  0  0  0  0  0  0  0
    9.1370   10.3070   23.8610 N   0  0  0  0  0  0  0  0  0  0  0  0
    9.9440    9.5470   23.0480 C   0  0  0  0  0  0  0  0  0  0  0  0
    8.1940    9.6860   24.6170 N   0  0  0  0  0  0  0  0  0  0  0  0
    7.5430   10.6350   25.3120 C   0  0  0  0  0  0  0  0  0  0  0  0
    6.8840   12.3590   27.6810 N   0  0  0  0  0  0  0  0  0  0  0  0
    6.4120   12.6640   29.0330 C   0  0  0  0  0  0  0  0  0  0  0  0
    7.5560   13.4680   29.7800 C   0  0  0  0  0  0  0  0  0  0  0  0
    7.6460   12.2280   30.6270 C   0  0  0  0  0  0  0  0  0  0  0  0
    6.5860   11.3880   29.9590 C   0  0  0  0  0  0  0  0  0  0  0  0
  1  2  1  0
  2  3  1  0
  3  4  2  0
  3  5  1  0
  5  6  1  6
  6  7  1  0
  7  8  2  0
  8  9  1  0
  9 10  1  0
  9 11  1  0
 11 12  2  0
  5 13  1  0
 13 14  1  0
 14 15  1  0
 15 16  1  0
 16 17  1  0
 12  7  1  0
 17 14  1  0
A    1
 C1 
A    2
 O1 
A    3
 C2 
A    4
 O2 
A    5
 C3 
A    6
 C4 
A    7
 C5 
A    8
 C6 
A    9
 N1 
A   10
 C7 
A   11
 N2 
A   12
 C8 
A   13
 N3 
A   14
 C9 
A   15
 C10
A   16
 C11
A   17
 C12
M  END
>  <ref_url>  (38) 
nan

>  <submitter_name>  (38) 
nan

>  <submitter_email>  (38) 
nan

>  <submitter_institution>  (38) 
nan

>  <generation_date>  (38) 
nan

>  <method>  (38) 
nan

>  <ddG>  (38) 
-6.452317

>  <score>  (38) 
-0.985644

>  <ref_mols>  (38) 
A71x0556a,A71x0450a

>  <original SMILES>  (38) 
COC(=O)C(Cc1cnn(C)c1)NC1CCC1

>  <ref_pdb>  (38) 
A71x0310a

>  <butcher #BAD>  (38) 
6

>  <butcher #GOOD>  (38) 
11

>  <butcher #protein clash>  (38) 
0

>  <butcher #solvent space>  (38) 
6

>  <butcher #pocket>  (38) 
11

>  <butcher #P1>  (38) 
9

>  <butcher #P2>  (38) 
0

>  <butcher #P1'>  (38) 
0

>  <butcher #P2'>  (38) 
0

>  <butcher #P3>  (38) 
2

>  <butcher #P4>  (38) 
0

>  <butcher #P5>  (38) 
0

>  <butcher #P6>  (38) 
0

$$$$
Z3519360285
     RDKit          3D

 19 20  0  0  0  0  0  0  0  0999 V2000
   11.8220   14.9230   23.6260 N   0  0  0  0  0  0  0  0  0  0  0  0
   10.8590   13.9790   23.5460 C   0  0  1  0  0  0  0  0  0  0  0  0
    9.9820   14.1530   22.3410 C   0  0  0  0  0  0  0  0  0  0  0  0
    8.4990   13.7710   22.6700 C   0  0  0  0  0  0  0  0  0  0  0  0
    8.2020   12.7510   23.7900 C   0  0  0  0  0  0  0  0  0  0  0  0
    9.2600   11.7090   24.0720 C   0  0  1  0  0  0  0  0  0  0  0  0
    8.6940   10.2830   24.2280 C   0  0  0  0  0  0  0  0  0  0  0  0
    9.1570    9.3110   23.6180 O   0  0  0  0  0  0  0  0  0  0  0  0
    7.6480   10.1770   25.1060 N   0  0  0  0  0  0  0  0  0  0  0  0
    7.1050   11.3170   25.5960 C   0  0  0  0  0  0  0  0  0  0  0  0
    5.9200   11.1150   26.5520 C   0  0  0  0  0  0  0  0  0  0  0  0
    5.0770   12.2600   26.6190 O   0  0  0  0  0  0  0  0  0  0  0  0
    5.7440    9.9340   27.2410 N   0  0  0  0  0  0  0  0  0  0  0  0
    4.5970    9.7920   28.1040 C   0  0  0  0  0  0  0  0  0  0  0  0
    4.8770    9.0160   29.3880 C   0  0  0  0  0  0  0  0  0  0  0  0
    4.0440    7.8880   28.9040 C   0  0  0  0  0  0  0  0  0  0  0  0
    3.5930    8.6270   27.6530 C   0  0  0  0  0  0  0  0  0  0  0  0
   10.4170   11.6120   23.1150 C   0  0  0  0  0  0  0  0  0  0  0  0
   11.5040   12.6650   23.3440 C   0  0  0  0  0  0  0  0  0  0  0  0
  2  1  1  6
  2  3  1  0
  3  4  1  0
  4  5  1  0
  5  6  1  0
  6  7  1  6
  7  8  2  0
  7  9  1  0
  9 10  1  0
 10 11  1  0
 11 12  2  0
 11 13  1  0
 13 14  1  0
 14 15  1  0
 15 16  1  0
 16 17  1  0
  6 18  1  0
 18 19  1  0
 19  2  1  0
 17 14  1  0
A    1
 N1 
A    2
 C1 
A    3
 C2 
A    4
 C3 
A    5
 C4 
A    6
 C5 
A    7
 C6 
A    8
 O1 
A    9
 N2 
A   10
 C7 
A   11
 C8 
A   12
 O2 
A   13
 N3 
A   14
 C9 
A   15
 C10
A   16
 C11
A   17
 C12
A   18
 C13
A   19
 C14
M  END
>  <ref_url>  (39) 
nan

>  <submitter_name>  (39) 
nan

>  <submitter_email>  (39) 
nan

>  <submitter_institution>  (39) 
nan

>  <generation_date>  (39) 
nan

>  <method>  (39) 
nan

>  <ddG>  (39) 
-4.76984

>  <score>  (39) 
6.717044

>  <ref_mols>  (39) 
A71x0556a,A71x0554a

>  <original SMILES>  (39) 
NC1CCCC(C(=O)NCC(=O)NC2CCC2)CC1

>  <ref_pdb>  (39) 
A71x0310a

>  <butcher #BAD>  (39) 
6

>  <butcher #GOOD>  (39) 
13

>  <butcher #protein clash>  (39) 
0

>  <butcher #solvent space>  (39) 
6

>  <butcher #pocket>  (39) 
13

>  <butcher #P1>  (39) 
12

>  <butcher #P2>  (39) 
0

>  <butcher #P1'>  (39) 
1

>  <butcher #P2'>  (39) 
0

>  <butcher #P3>  (39) 
0

>  <butcher #P4>  (39) 
0

>  <butcher #P5>  (39) 
0

>  <butcher #P6>  (39) 
0

$$$$
PV_003486214135
     RDKit          3D

 19 20  0  0  0  0  0  0  0  0999 V2000
   12.0780   14.0970   24.2800 C   0  0  0  0  0  0  0  0  0  0  0  0
   11.7630   13.9330   22.8080 C   0  0  0  0  0  0  0  0  0  0  0  0
   12.4020   14.5360   21.9570 O   0  0  0  0  0  0  0  0  0  0  0  0
   10.7210   13.0680   22.5120 N   0  0  0  0  0  0  0  0  0  0  0  0
   10.0030   12.3450   23.5500 C   0  0  2  0  0  0  0  0  0  0  0  0
   10.0090   10.8670   23.1460 C   0  0  0  0  0  0  0  0  0  0  0  0
    8.9960    9.9780   23.8230 C   0  0  0  0  0  0  0  0  0  0  0  0
    8.0760   10.6700   24.8300 C   0  0  0  0  0  0  0  0  0  0  0  0
    7.6610   12.1310   24.6480 C   0  0  1  0  0  0  0  0  0  0  0  0
    7.3410   12.7320   25.8490 N   0  0  0  0  0  0  0  0  0  0  0  0
    6.1480   12.2940   26.5770 C   0  0  0  0  0  0  0  0  0  0  0  0
    5.1670   13.0150   26.7260 O   0  0  0  0  0  0  0  0  0  0  0  0
    6.2620   10.8680   27.1350 C   0  0  0  0  0  0  0  0  0  0  0  0
    4.9550   10.4310   26.7150 O   0  0  0  0  0  0  0  0  0  0  0  0
    4.4910   10.0530   28.0360 C   0  0  0  0  0  0  0  0  0  0  0  0
    5.3140    9.0640   28.8200 C   0  0  0  0  0  0  0  0  0  0  0  0
    4.1560    8.1460   28.8710 C   0  0  0  0  0  0  0  0  0  0  0  0
    3.2610    9.0590   28.0310 C   0  0  0  0  0  0  0  0  0  0  0  0
    8.6240   12.9800   23.8000 C   0  0  0  0  0  0  0  0  0  0  0  0
  1  2  1  0
  2  3  2  0
  2  4  1  0
  5  4  1  6
  5  6  1  0
  6  7  1  0
  7  8  1  0
  8  9  1  0
  9 10  1  1
 10 11  1  0
 11 12  2  0
 11 13  1  0
 13 14  1  0
 14 15  1  0
 15 16  1  0
 16 17  1  0
 17 18  1  0
  9 19  1  0
 19  5  1  0
 18 15  1  0
A    1
 C1 
A    2
 C2 
A    3
 O1 
A    4
 N1 
A    5
 C3 
A    6
 C4 
A    7
 C5 
A    8
 C6 
A    9
 C7 
A   10
 N2 
A   11
 C8 
A   12
 O2 
A   13
 C9 
A   14
 O3 
A   15
 C10
A   16
 C11
A   17
 C12
A   18
 C13
A   19
 C14
M  END
>  <ref_url>  (40) 
nan

>  <submitter_name>  (40) 
nan

>  <submitter_email>  (40) 
nan

>  <submitter_institution>  (40) 
nan

>  <generation_date>  (40) 
nan

>  <method>  (40) 
nan

>  <ddG>  (40) 
-3.417171

>  <score>  (40) 
9.783799

>  <ref_mols>  (40) 
A71x0884a,A71x0556a

>  <original SMILES>  (40) 
CC(=O)N[C@@H]1CCC[C@@H](NC(=O)COC2CCC2)C1

>  <ref_pdb>  (40) 
A71x0310a

>  <butcher #BAD>  (40) 
6

>  <butcher #GOOD>  (40) 
13

>  <butcher #protein clash>  (40) 
0

>  <butcher #solvent space>  (40) 
6

>  <butcher #pocket>  (40) 
13

>  <butcher #P1>  (40) 
11

>  <butcher #P2>  (40) 
0

>  <butcher #P1'>  (40) 
2

>  <butcher #P2'>  (40) 
0

>  <butcher #P3>  (40) 
0

>  <butcher #P4>  (40) 
0

>  <butcher #P5>  (40) 
0

>  <butcher #P6>  (40) 
0

$$$$
PV_003441873981
     RDKit          3D

 20 21  0  0  0  0  0  0  0  0999 V2000
    9.3180    9.1350   22.9170 C   0  0  0  0  0  0  0  0  0  0  0  0
    9.3170   10.3060   23.8270 C   0  0  2  0  0  0  0  0  0  0  0  0
    8.1400   10.7370   24.7120 C   0  0  0  0  0  0  0  0  0  0  0  0
    7.8170   12.2550   24.7570 C   0  0  1  0  0  0  0  0  0  0  0  0
    7.3010   12.6450   26.0680 N   0  0  0  0  0  0  0  0  0  0  0  0
    6.0720   12.2180   26.5170 C   0  0  0  0  0  0  0  0  0  0  0  0
    5.1320   12.9830   26.7060 O   0  0  0  0  0  0  0  0  0  0  0  0
    5.9900   10.7240   26.7680 C   0  0  0  0  0  0  0  0  0  0  0  0
    5.6330   10.4780   28.1030 O   0  0  0  0  0  0  0  0  0  0  0  0
    5.1330    9.1560   28.3740 C   0  0  0  0  0  0  0  0  0  0  0  0
    3.7640    8.7070   27.9140 C   0  0  0  0  0  0  0  0  0  0  0  0
    3.3930    8.2100   29.2360 C   0  0  0  0  0  0  0  0  0  0  0  0
    4.6710    8.7890   29.8640 C   0  0  0  0  0  0  0  0  0  0  0  0
    8.9660   13.2510   24.4280 C   0  0  0  0  0  0  0  0  0  0  0  0
   10.1590   12.6560   23.8610 N   0  0  0  0  0  0  0  0  0  0  0  0
   10.9420   13.4800   22.9310 C   0  0  0  0  0  0  0  0  0  0  0  0
   10.5260   13.8490   21.8320 O   0  0  0  0  0  0  0  0  0  0  0  0
   12.3080   13.8940   23.4410 C   0  0  0  0  0  0  0  0  0  0  0  0
   12.2210   14.5060   24.7240 O   0  0  0  0  0  0  0  0  0  0  0  0
    9.8380   11.5010   23.0820 C   0  0  0  0  0  0  0  0  0  0  0  0
  2  1  1  6
  2  3  1  0
  3  4  1  0
  4  5  1  1
  5  6  1  0
  6  7  2  0
  6  8  1  0
  8  9  1  0
  9 10  1  0
 10 11  1  0
 11 12  1  0
 12 13  1  0
  4 14  1  0
 14 15  1  0
 15 16  1  0
 16 17  2  0
 16 18  1  0
 18 19  1  0
 15 20  1  0
 20  2  1  0
 13 10  1  0
A    1
 C1 
A    2
 C2 
A    3
 C3 
A    4
 C4 
A    5
 N1 
A    6
 C5 
A    7
 O1 
A    8
 C6 
A    9
 O2 
A   10
 C7 
A   11
 C8 
A   12
 C9 
A   13
 C10
A   14
 C11
A   15
 N2 
A   16
 C12
A   17
 O3 
A   18
 C13
A   19
 O4 
A   20
 C14
M  END
>  <ref_url>  (41) 
nan

>  <submitter_name>  (41) 
nan

>  <submitter_email>  (41) 
nan

>  <submitter_institution>  (41) 
nan

>  <generation_date>  (41) 
nan

>  <method>  (41) 
nan

>  <ddG>  (41) 
-4.170063

>  <score>  (41) 
11.705421

>  <ref_mols>  (41) 
A71x0884a,A71x0556a

>  <original SMILES>  (41) 
C[C@@H]1C[C@@H](NC(=O)COC2CCC2)CN(C(=O)CO)C1

>  <ref_pdb>  (41) 
A71x0310a

>  <butcher #BAD>  (41) 
7

>  <butcher #GOOD>  (41) 
13

>  <butcher #protein clash>  (41) 
1

>  <butcher #solvent space>  (41) 
6

>  <butcher #pocket>  (41) 
13

>  <butcher #P1>  (41) 
11

>  <butcher #P2>  (41) 
0

>  <butcher #P1'>  (41) 
2

>  <butcher #P2'>  (41) 
0

>  <butcher #P3>  (41) 
0

>  <butcher #P4>  (41) 
0

>  <butcher #P5>  (41) 
0

>  <butcher #P6>  (41) 
0

$$$$
Z3142077183
     RDKit          3D

 17 18  0  0  0  0  0  0  0  0999 V2000
    3.0220   12.7940   17.6020 C   0  0  0  0  0  0  0  0  0  0  0  0
    3.8320   12.6070   18.8560 C   0  0  2  0  0  0  0  0  0  0  0  0
    4.0250   11.1150   18.9170 C   0  0  0  0  0  0  0  0  0  0  0  0
    2.7730   10.3890   19.3640 C   0  0  0  0  0  0  0  0  0  0  0  0
    1.8450   11.1420   20.3350 C   0  0  0  0  0  0  0  0  0  0  0  0
    1.8150   12.5310   20.1020 N   0  0  0  0  0  0  0  0  0  0  0  0
    0.7270   13.2980   20.7460 C   0  0  0  0  0  0  0  0  0  0  0  0
    0.5840   13.3350   21.9680 O   0  0  0  0  0  0  0  0  0  0  0  0
   -0.2440   14.0310   19.8080 C   0  0  0  0  0  0  0  0  0  0  0  0
    0.1570   13.9460   18.3450 C   0  0  1  0  0  0  0  0  0  0  0  0
    0.0190   12.5700   17.7280 C   0  0  0  0  0  0  0  0  0  0  0  0
   -0.4730   12.8180   16.3120 C   0  0  0  0  0  0  0  0  0  0  0  0
   -0.5540   14.1860   16.0940 N   0  0  0  0  0  0  0  0  0  0  0  0
   -0.7950   14.7290   17.4430 C   0  0  0  0  0  0  0  0  0  0  0  0
    3.1760   12.9680   20.2030 C   0  0  2  0  0  0  0  0  0  0  0  0
    3.2950   14.3040   20.8830 C   0  0  0  0  0  0  0  0  0  0  0  0
    3.4880   14.2270   22.2960 O   0  0  0  0  0  0  0  0  0  0  0  0
  2  1  1  6
  2  3  1  0
  3  4  1  0
  4  5  1  0
  5  6  1  0
  6  7  1  0
  7  8  2  0
  7  9  1  0
 10  9  1  1
 10 11  1  0
 11 12  1  0
 12 13  1  0
 13 14  1  0
  6 15  1  0
 15 16  1  6
 16 17  1  0
 15  2  1  0
 14 10  1  0
A    1
 C1 
A    2
 C2 
A    3
 C3 
A    4
 C4 
A    5
 C5 
A    6
 N1 
A    7
 C6 
A    8
 O1 
A    9
 C7 
A   10
 C8 
A   11
 C9 
A   12
 C10
A   13
 N2 
A   14
 C11
A   15
 C12
A   16
 C13
A   17
 O2 
M  END
>  <ref_url>  (42) 
nan

>  <submitter_name>  (42) 
nan

>  <submitter_email>  (42) 
nan

>  <submitter_institution>  (42) 
nan

>  <generation_date>  (42) 
nan

>  <method>  (42) 
nan

>  <ddG>  (42) 
-3.881909

>  <score>  (42) 
0.604341

>  <ref_mols>  (42) 
A71x0911a

>  <original SMILES>  (42) 
C[C@@H]1CCCN(C(=O)C[C@H]2CCNC2)[C@@H]1CO

>  <ref_pdb>  (42) 
A71x0310a

>  <butcher #BAD>  (42) 
1

>  <butcher #GOOD>  (42) 
16

>  <butcher #protein clash>  (42) 
0

>  <butcher #solvent space>  (42) 
1

>  <butcher #pocket>  (42) 
16

>  <butcher #P1>  (42) 
0

>  <butcher #P2>  (42) 
0

>  <butcher #P1'>  (42) 
0

>  <butcher #P2'>  (42) 
0

>  <butcher #P3>  (42) 
3

>  <butcher #P4>  (42) 
3

>  <butcher #P5>  (42) 
8

>  <butcher #P6>  (42) 
2

$$$$
Z1408668814
     RDKit          3D

 17 18  0  0  0  0  0  0  0  0999 V2000
    4.4170   14.3330   21.9660 C   0  0  0  0  0  0  0  0  0  0  0  0
    3.4710   14.4730   20.8200 C   0  0  0  0  0  0  0  0  0  0  0  0
    3.0270   13.3720   19.8730 C   0  0  1  0  0  0  0  0  0  0  0  0
    4.1050   12.5820   19.2320 C   0  0  0  0  0  0  0  0  0  0  0  0
    3.4780   11.6680   18.2210 C   0  0  0  0  0  0  0  0  0  0  0  0
    2.6970   10.6070   18.9630 C   0  0  0  0  0  0  0  0  0  0  0  0
    2.0100   11.0610   20.2580 C   0  0  0  0  0  0  0  0  0  0  0  0
    2.0800   12.5150   20.6710 C   0  0  2  0  0  0  0  0  0  0  0  0
    0.7520   13.1350   20.8130 N   0  0  0  0  0  0  0  0  0  0  0  0
    0.4810   13.3480   22.2180 C   0  0  0  0  0  0  0  0  0  0  0  0
    0.1740   13.9760   19.8360 C   0  0  0  0  0  0  0  0  0  0  0  0
   -0.5460   14.9120   20.1750 O   0  0  0  0  0  0  0  0  0  0  0  0
    0.3610   13.7980   18.3290 C   0  0  0  0  0  0  0  0  0  0  0  0
    0.0880   12.3970   17.7950 C   0  0  0  0  0  0  0  0  0  0  0  0
   -0.4380   12.5800   16.3720 C   0  0  0  0  0  0  0  0  0  0  0  0
   -0.8130   14.0520   16.2100 C   0  0  0  0  0  0  0  0  0  0  0  0
   -0.6950   14.6400   17.6020 C   0  0  0  0  0  0  0  0  0  0  0  0
  1  2  1  0
  3  2  1  1
  3  4  1  0
  4  5  1  0
  5  6  1  0
  6  7  1  0
  7  8  1  0
  8  9  1  6
  9 10  1  0
  9 11  1  0
 11 12  2  0
 11 13  1  0
 13 14  1  0
 14 15  1  0
 15 16  1  0
 16 17  1  0
  8  3  1  0
 17 13  1  0
A    1
 C1 
A    2
 C2 
A    3
 C3 
A    4
 C4 
A    5
 C5 
A    6
 C6 
A    7
 C7 
A    8
 C8 
A    9
 N1 
A   10
 C9 
A   11
 C10
A   12
 O1 
A   13
 C11
A   14
 C12
A   15
 C13
A   16
 C14
A   17
 C15
M  END
>  <ref_url>  (43) 
nan

>  <submitter_name>  (43) 
nan

>  <submitter_email>  (43) 
nan

>  <submitter_institution>  (43) 
nan

>  <generation_date>  (43) 
nan

>  <method>  (43) 
nan

>  <ddG>  (43) 
-4.025787

>  <score>  (43) 
-17.169458

>  <ref_mols>  (43) 
A71x0911a

>  <original SMILES>  (43) 
CCC1CCCCC1N(C)C(=O)C1CCCC1

>  <ref_pdb>  (43) 
A71x0310a

>  <butcher #BAD>  (43) 
1

>  <butcher #GOOD>  (43) 
16

>  <butcher #protein clash>  (43) 
0

>  <butcher #solvent space>  (43) 
1

>  <butcher #pocket>  (43) 
16

>  <butcher #P1>  (43) 
0

>  <butcher #P2>  (43) 
0

>  <butcher #P1'>  (43) 
0

>  <butcher #P2'>  (43) 
0

>  <butcher #P3>  (43) 
3

>  <butcher #P4>  (43) 
2

>  <butcher #P5>  (43) 
9

>  <butcher #P6>  (43) 
2

$$$$
Z3360326126
     RDKit          3D

 17 18  0  0  0  0  0  0  0  0999 V2000
    5.5040   15.1390   28.4440 C   0  0  0  0  0  0  0  0  0  0  0  0
    6.7610   14.4490   27.9260 C   0  0  0  0  0  0  0  0  0  0  0  0
    7.9660   15.4020   27.7580 C   0  0  2  0  0  0  0  0  0  0  0  0
    7.5150   16.7570   27.9250 O   0  0  0  0  0  0  0  0  0  0  0  0
    8.7280   15.2750   26.4190 C   0  0  0  0  0  0  0  0  0  0  0  0
    8.0400   14.7070   25.3490 N   0  0  0  0  0  0  0  0  0  0  0  0
    7.9080   13.2800   25.3020 C   0  0  1  0  0  0  0  0  0  0  0  0
    6.5450   12.7340   25.0420 C   0  0  0  0  0  0  0  0  0  0  0  0
    6.5470   11.3300   25.6450 C   0  0  0  0  0  0  0  0  0  0  0  0
    7.6810   10.4370   25.0940 C   0  0  0  0  0  0  0  0  0  0  0  0
    8.6590   11.1660   24.2020 C   0  0  0  0  0  0  0  0  0  0  0  0
    8.7660   12.5390   24.3040 C   0  0  0  0  0  0  0  0  0  0  0  0
    9.8470   12.6900   23.2070 C   0  0  0  0  0  0  0  0  0  0  0  0
   10.4080   14.0380   22.8100 C   0  0  0  0  0  0  0  0  0  0  0  0
   10.2400   11.5680   22.6450 N   0  0  0  0  0  0  0  0  0  0  0  0
    9.5100   10.6480   23.2560 N   0  0  0  0  0  0  0  0  0  0  0  0
    9.7070    9.2810   22.8600 C   0  0  0  0  0  0  0  0  0  0  0  0
  1  2  1  0
  2  3  1  0
  3  4  1  6
  3  5  1  0
  5  6  1  0
  7  6  1  6
  7  8  1  0
  8  9  1  0
  9 10  1  0
 10 11  1  0
 11 12  2  0
 12 13  1  0
 13 14  1  0
 13 15  2  0
 15 16  1  0
 16 17  1  0
 12  7  1  0
 16 11  1  0
A    1
 C1 
A    2
 C2 
A    3
 C3 
A    4
 O1 
A    5
 C4 
A    6
 N1 
A    7
 C5 
A    8
 C6 
A    9
 C7 
A   10
 C8 
A   11
 C9 
A   12
 C10
A   13
 C11
A   14
 C12
A   15
 N2 
A   16
 N3 
A   17
 C13
M  END
>  <ref_url>  (44) 
nan

>  <submitter_name>  (44) 
nan

>  <submitter_email>  (44) 
nan

>  <submitter_institution>  (44) 
nan

>  <generation_date>  (44) 
nan

>  <method>  (44) 
nan

>  <ddG>  (44) 
-3.817908

>  <score>  (44) 
10.755624

>  <ref_mols>  (44) 
A71x0812a,A71x0351a

>  <original SMILES>  (44) 
CCC(O)CNC1CCCc2c1c(C)nn2C

>  <ref_pdb>  (44) 
A71x0310a

>  <butcher #BAD>  (44) 
5

>  <butcher #GOOD>  (44) 
12

>  <butcher #protein clash>  (44) 
0

>  <butcher #solvent space>  (44) 
5

>  <butcher #pocket>  (44) 
12

>  <butcher #P1>  (44) 
12

>  <butcher #P2>  (44) 
0

>  <butcher #P1'>  (44) 
0

>  <butcher #P2'>  (44) 
0

>  <butcher #P3>  (44) 
0

>  <butcher #P4>  (44) 
0

>  <butcher #P5>  (44) 
0

>  <butcher #P6>  (44) 
0

$$$$
Z5018081172
     RDKit          3D

 17 18  0  0  0  0  0  0  0  0999 V2000
    5.5450   15.4700   27.8470 C   0  0  0  0  0  0  0  0  0  0  0  0
    6.7020   14.8600   28.6220 C   0  0  0  0  0  0  0  0  0  0  0  0
    7.9820   14.6560   27.7960 C   0  0  2  0  0  0  0  0  0  0  0  0
    8.9440   14.9940   28.4890 O   0  0  0  0  0  0  0  0  0  0  0  0
    8.0510   15.4120   26.4640 C   0  0  0  0  0  0  0  0  0  0  0  0
    7.6200   14.6620   25.1840 C   0  0  0  0  0  0  0  0  0  0  0  0
    7.7360   13.2210   25.2200 N   0  0  0  0  0  0  0  0  0  0  0  0
    6.4120   12.6890   25.5370 C   0  0  0  0  0  0  0  0  0  0  0  0
    6.3810   11.2410   25.9700 C   0  0  0  0  0  0  0  0  0  0  0  0
    7.4130   10.3540   25.2700 C   0  0  0  0  0  0  0  0  0  0  0  0
    8.4090   10.9540   24.3400 C   0  0  0  0  0  0  0  0  0  0  0  0
    8.5970   12.4320   24.2940 C   0  0  0  0  0  0  0  0  0  0  0  0
    9.6830   12.5240   23.2350 C   0  0  0  0  0  0  0  0  0  0  0  0
   10.2990   13.8350   22.7460 C   0  0  0  0  0  0  0  0  0  0  0  0
    9.4140   14.5590   21.8860 O   0  0  0  0  0  0  0  0  0  0  0  0
   10.0520   11.2840   22.7680 N   0  0  0  0  0  0  0  0  0  0  0  0
    9.2830   10.3820   23.4390 N   0  0  0  0  0  0  0  0  0  0  0  0
  1  2  1  0
  2  3  1  0
  3  4  1  1
  3  5  1  0
  5  6  1  0
  6  7  1  0
  7  8  1  0
  8  9  1  0
  9 10  1  0
 10 11  1  0
 11 12  2  0
 12 13  1  0
 13 14  1  0
 14 15  1  0
 13 16  2  0
 16 17  1  0
 12  7  1  0
 17 11  1  0
A    1
 C1 
A    2
 C2 
A    3
 C3 
A    4
 O1 
A    5
 C4 
A    6
 C5 
A    7
 N1 
A    8
 C6 
A    9
 C7 
A   10
 C8 
A   11
 C9 
A   12
 C10
A   13
 C11
A   14
 C12
A   15
 O2 
A   16
 N2 
A   17
 N3 
M  END
>  <ref_url>  (45) 
nan

>  <submitter_name>  (45) 
nan

>  <submitter_email>  (45) 
nan

>  <submitter_institution>  (45) 
nan

>  <generation_date>  (45) 
nan

>  <method>  (45) 
nan

>  <ddG>  (45) 
-1.500329

>  <score>  (45) 
19.498321

>  <ref_mols>  (45) 
A71x0812a,A71x0351a

>  <original SMILES>  (45) 
CCC(O)CCN1CCCc2[nH]nc(CO)c21

>  <ref_pdb>  (45) 
A71x0310a

>  <butcher #BAD>  (45) 
5

>  <butcher #GOOD>  (45) 
12

>  <butcher #protein clash>  (45) 
0

>  <butcher #solvent space>  (45) 
5

>  <butcher #pocket>  (45) 
12

>  <butcher #P1>  (45) 
11

>  <butcher #P2>  (45) 
1

>  <butcher #P1'>  (45) 
0

>  <butcher #P2'>  (45) 
0

>  <butcher #P3>  (45) 
0

>  <butcher #P4>  (45) 
0

>  <butcher #P5>  (45) 
0

>  <butcher #P6>  (45) 
0

$$$$
Z3520978525
     RDKit          3D

 15 15  0  0  0  0  0  0  0  0999 V2000
    9.7200   14.9180   20.7480 C   0  0  0  0  0  0  0  0  0  0  0  0
    9.4120   14.0930   21.8860 N   0  0  0  0  0  0  0  0  0  0  0  0
   10.4230   13.4010   22.5220 C   0  0  0  0  0  0  0  0  0  0  0  0
   11.6070   13.5270   22.2570 O   0  0  0  0  0  0  0  0  0  0  0  0
    9.9330   12.4820   23.6060 C   0  0  0  0  0  0  0  0  0  0  0  0
    9.8940   11.0050   23.2090 C   0  0  0  0  0  0  0  0  0  0  0  0
    8.7330   10.3840   23.9200 C   0  0  0  0  0  0  0  0  0  0  0  0
    8.5910    9.2220   24.2350 O   0  0  0  0  0  0  0  0  0  0  0  0
    7.7910   11.3370   24.1750 N   0  0  0  0  0  0  0  0  0  0  0  0
    7.3920   11.6540   25.5080 C   0  0  2  0  0  0  0  0  0  0  0  0
    6.4320   10.6110   26.0790 C   0  0  0  0  0  0  0  0  0  0  0  0
    5.1930   11.3090   26.4200 N   0  0  0  0  0  0  0  0  0  0  0  0
    5.5410   12.7170   26.5690 C   0  0  2  0  0  0  0  0  0  0  0  0
    4.3180   13.5880   26.3500 C   0  0  0  0  0  0  0  0  0  0  0  0
    6.6440   12.9720   25.5550 C   0  0  0  0  0  0  0  0  0  0  0  0
  1  2  1  0
  2  3  1  0
  3  4  2  0
  3  5  1  0
  5  6  1  0
  6  7  1  0
  7  8  2  0
  7  9  1  0
 10  9  1  6
 10 11  1  0
 11 12  1  0
 12 13  1  0
 13 14  1  6
 13 15  1  0
 15 10  1  0
A    1
 C1 
A    2
 N1 
A    3
 C2 
A    4
 O1 
A    5
 C3 
A    6
 C4 
A    7
 C5 
A    8
 O2 
A    9
 N2 
A   10
 C6 
A   11
 C7 
A   12
 N3 
A   13
 C8 
A   14
 C9 
A   15
 C10
M  END
>  <ref_url>  (46) 
nan

>  <submitter_name>  (46) 
nan

>  <submitter_email>  (46) 
nan

>  <submitter_institution>  (46) 
nan

>  <generation_date>  (46) 
nan

>  <method>  (46) 
nan

>  <ddG>  (46) 
-1.653651

>  <score>  (46) 
21.385254

>  <ref_mols>  (46) 
A71x0566a,A71x0446a

>  <original SMILES>  (46) 
CNC(=O)CCC(=O)NC1CNC(C)C1

>  <ref_pdb>  (46) 
A71x0310a

>  <butcher #BAD>  (46) 
2

>  <butcher #GOOD>  (46) 
13

>  <butcher #protein clash>  (46) 
0

>  <butcher #solvent space>  (46) 
2

>  <butcher #pocket>  (46) 
13

>  <butcher #P1>  (46) 
11

>  <butcher #P2>  (46) 
1

>  <butcher #P1'>  (46) 
0

>  <butcher #P2'>  (46) 
0

>  <butcher #P3>  (46) 
1

>  <butcher #P4>  (46) 
0

>  <butcher #P5>  (46) 
0

>  <butcher #P6>  (46) 
0

$$$$
PV_004240582764
     RDKit          3D

 22 23  0  0  0  0  0  0  0  0999 V2000
   10.2590   15.0640   20.5910 C   0  0  0  0  0  0  0  0  0  0  0  0
   11.0270   14.8570   21.8940 C   0  0  1  0  0  0  0  0  0  0  0  0
   10.7130   13.6580   22.6880 C   0  0  0  0  0  0  0  0  0  0  0  0
   11.3960   12.6610   22.6370 O   0  0  0  0  0  0  0  0  0  0  0  0
    9.6490   13.7830   23.5060 N   0  0  0  0  0  0  0  0  0  0  0  0
    9.3510   12.6550   24.3370 C   0  0  2  0  0  0  0  0  0  0  0  0
    9.3270   11.4830   23.3850 C   0  0  0  0  0  0  0  0  0  0  0  0
    8.9190   10.1530   23.9260 C   0  0  0  0  0  0  0  0  0  0  0  0
    7.8560   10.2600   25.0390 C   0  0  0  0  0  0  0  0  0  0  0  0
    7.2360   11.5930   25.3900 C   0  0  0  0  0  0  0  0  0  0  0  0
    8.0510   12.8500   25.1370 C   0  0  2  0  0  0  0  0  0  0  0  0
    7.2030   13.7960   24.5060 N   0  0  0  0  0  0  0  0  0  0  0  0
    6.8540   14.9710   25.0900 C   0  0  0  0  0  0  0  0  0  0  0  0
    6.3640   16.0200   24.2870 O   0  0  0  0  0  0  0  0  0  0  0  0
    7.0120   15.0290   26.6280 C   0  0  1  0  0  0  0  0  0  0  0  0
    8.3000   15.7100   27.1030 C   0  0  0  0  0  0  0  0  0  0  0  0
    7.8350   16.8210   28.0350 C   0  0  0  0  0  0  0  0  0  0  0  0
    6.4290   16.4050   28.3960 C   0  0  0  0  0  0  0  0  0  0  0  0
    5.9300   15.7030   27.2640 O   0  0  0  0  0  0  0  0  0  0  0  0
   12.4480   14.7160   21.9060 N   0  0  0  0  0  0  0  0  0  0  0  0
   13.0530   15.7940   21.2480 C   0  0  0  0  0  0  0  0  0  0  0  0
   12.8350   14.7160   23.3000 C   0  0  0  0  0  0  0  0  0  0  0  0
  2  1  1  6
  2  3  1  0
  3  4  2  0
  3  5  1  0
  6  5  1  6
  6  7  1  0
  7  8  1  0
  8  9  1  0
  9 10  1  0
 10 11  1  0
 11 12  1  6
 12 13  1  0
 13 14  2  0
 15 13  1  6
 15 16  1  0
 16 17  1  0
 17 18  1  0
 18 19  1  0
  2 20  1  0
 20 21  1  0
 20 22  1  0
 11  6  1  0
 19 15  1  0
A    1
 C1 
A    2
 C2 
A    3
 C3 
A    4
 O1 
A    5
 N1 
A    6
 C4 
A    7
 C5 
A    8
 C6 
A    9
 C7 
A   10
 C8 
A   11
 C9 
A   12
 N2 
A   13
 C10
A   14
 O2 
A   15
 C11
A   16
 C12
A   17
 C13
A   18
 C14
A   19
 O3 
A   20
 N3 
A   21
 C15
A   22
 C16
M  END
>  <ref_url>  (47) 
nan

>  <submitter_name>  (47) 
nan

>  <submitter_email>  (47) 
nan

>  <submitter_institution>  (47) 
nan

>  <generation_date>  (47) 
nan

>  <method>  (47) 
nan

>  <ddG>  (47) 
-2.158802

>  <score>  (47) 
14.072116

>  <ref_mols>  (47) 
A71x0416a,A71x0528a

>  <original SMILES>  (47) 
C[C@@H](C(=O)N[C@@H]1CCCC[C@@H]1NC(=O)[C@H]1CCCO1)N(C)C

>  <ref_pdb>  (47) 
A71x0310a

>  <butcher #BAD>  (47) 
6

>  <butcher #GOOD>  (47) 
16

>  <butcher #protein clash>  (47) 
0

>  <butcher #solvent space>  (47) 
6

>  <butcher #pocket>  (47) 
16

>  <butcher #P1>  (47) 
10

>  <butcher #P2>  (47) 
2

>  <butcher #P1'>  (47) 
2

>  <butcher #P2'>  (47) 
0

>  <butcher #P3>  (47) 
2

>  <butcher #P4>  (47) 
0

>  <butcher #P5>  (47) 
0

>  <butcher #P6>  (47) 
0

$$$$
PV_006446192141
     RDKit          3D

 10  9  0  0  0  0  0  0  0  0999 V2000
    9.5000   12.7660   24.0620 C   0  0  0  0  0  0  0  0  0  0  0  0
    8.6280   12.3020   25.0310 N   0  0  0  0  0  0  0  0  0  0  0  0
    7.8020   11.2050   24.6020 C   0  0  1  0  0  0  0  0  0  0  0  0
    8.6970   10.0980   23.9870 C   0  0  0  0  0  0  0  0  0  0  0  0
    6.9020   10.5640   25.6640 C   0  0  0  0  0  0  0  0  0  0  0  0
    6.0840   11.4180   26.6810 C   0  0  0  0  0  0  0  0  0  0  0  0
    5.6040   12.7940   26.1800 C   0  0  0  0  0  0  0  0  0  0  0  0
    5.2510   13.7010   27.3680 C   0  0  0  0  0  0  0  0  0  0  0  0
    6.5850   13.5400   25.2700 C   0  0  0  0  0  0  0  0  0  0  0  0
    4.5310   12.6800   25.6070 O   0  0  0  0  0  0  0  0  0  0  0  0
  1  2  1  0
  2  3  1  0
  3  4  1  1
  3  5  1  0
  5  6  1  0
  6  7  1  0
  7  8  1  0
  7  9  1  0
  7 10  1  0
A    1
 C1 
A    2
 N1 
A    3
 C2 
A    4
 C3 
A    5
 C4 
A    6
 C5 
A    7
 C6 
A    8
 C7 
A    9
 C8 
A   10
 O1 
M  END
>  <ref_url>  (48) 
nan

>  <submitter_name>  (48) 
nan

>  <submitter_email>  (48) 
nan

>  <submitter_institution>  (48) 
nan

>  <generation_date>  (48) 
nan

>  <method>  (48) 
nan

>  <ddG>  (48) 
-3.677637

>  <score>  (48) 
43.043874

>  <ref_mols>  (48) 
A71x0446a,A71x0515a

>  <original SMILES>  (48) 
CNC(C)CCC(C)(C)O

>  <ref_pdb>  (48) 
A71x0310a

>  <butcher #BAD>  (48) 
2

>  <butcher #GOOD>  (48) 
8

>  <butcher #protein clash>  (48) 
0

>  <butcher #solvent space>  (48) 
2

>  <butcher #pocket>  (48) 
8

>  <butcher #P1>  (48) 
7

>  <butcher #P2>  (48) 
0

>  <butcher #P1'>  (48) 
0

>  <butcher #P2'>  (48) 
0

>  <butcher #P3>  (48) 
1

>  <butcher #P4>  (48) 
0

>  <butcher #P5>  (48) 
0

>  <butcher #P6>  (48) 
0

$$$$
PV_003176669772
     RDKit          3D

 10  9  0  0  0  0  0  0  0  0999 V2000
    6.6670   10.3540   25.7180 C   0  0  0  0  0  0  0  0  0  0  0  0
    5.9600   11.0380   27.1950 S   0  0  0  0  0  0  0  0  0  0  0  0
    5.6200   12.7510   26.5980 C   0  0  1  0  0  0  0  0  0  0  0  0
    5.2900   13.6210   27.8160 C   0  0  0  0  0  0  0  0  0  0  0  0
    6.8440   13.3110   25.8490 C   0  0  0  0  0  0  0  0  0  0  0  0
    7.5640   12.2520   25.0220 C   0  0  0  0  0  0  0  0  0  0  0  0
    8.3620   12.7490   23.9330 N   0  0  0  0  0  0  0  0  0  0  0  0
    9.5540   11.9520   23.8460 C   0  0  0  0  0  0  0  0  0  0  0  0
   10.6680   12.5330   22.9800 C   0  0  0  0  0  0  0  0  0  0  0  0
    9.2980   10.4520   23.5600 C   0  0  0  0  0  0  0  0  0  0  0  0
  1  2  1  0
  2  3  1  0
  3  4  1  1
  3  5  1  0
  5  6  1  0
  6  7  1  0
  7  8  1  0
  8  9  1  0
  8 10  1  0
A    1
 C1 
A    2
 S1 
A    3
 C2 
A    4
 C3 
A    5
 C4 
A    6
 C5 
A    7
 N1 
A    8
 C6 
A    9
 C7 
A   10
 C8 
M  END
>  <ref_url>  (49) 
nan

>  <submitter_name>  (49) 
nan

>  <submitter_email>  (49) 
nan

>  <submitter_institution>  (49) 
nan

>  <generation_date>  (49) 
nan

>  <method>  (49) 
nan

>  <ddG>  (49) 
-5.280482

>  <score>  (49) 
275.545392

>  <ref_mols>  (49) 
A71x0446a,A71x0515a

>  <original SMILES>  (49) 
CSC(C)CCNC(C)C

>  <ref_pdb>  (49) 
A71x0310a

>  <butcher #BAD>  (49) 
3

>  <butcher #GOOD>  (49) 
7

>  <butcher #protein clash>  (49) 
0

>  <butcher #solvent space>  (49) 
3

>  <butcher #pocket>  (49) 
7

>  <butcher #P1>  (49) 
7

>  <butcher #P2>  (49) 
0

>  <butcher #P1'>  (49) 
0

>  <butcher #P2'>  (49) 
0

>  <butcher #P3>  (49) 
0

>  <butcher #P4>  (49) 
0

>  <butcher #P5>  (49) 
0

>  <butcher #P6>  (49) 
0

$$$$
PV_006136098708
     RDKit          3D

 10  9  0  0  0  0  0  0  0  0999 V2000
    9.6810   12.7550   23.9670 C   0  0  0  0  0  0  0  0  0  0  0  0
    8.7370   12.2800   24.9710 N   0  0  0  0  0  0  0  0  0  0  0  0
    7.8960   11.2110   24.4790 C   0  0  1  0  0  0  0  0  0  0  0  0
    8.8380   10.1730   23.8280 C   0  0  0  0  0  0  0  0  0  0  0  0
    7.0450   10.5440   25.5660 C   0  0  0  0  0  0  0  0  0  0  0  0
    6.0140   11.3540   26.3660 C   0  0  0  0  0  0  0  0  0  0  0  0
    6.0940   12.8980   26.2490 C   0  0  0  0  0  0  0  0  0  0  0  0
    4.6850   13.5000   26.4800 C   0  0  0  0  0  0  0  0  0  0  0  0
    6.5780   13.3270   24.8510 C   0  0  0  0  0  0  0  0  0  0  0  0
    7.0720   13.4880   27.2830 C   0  0  0  0  0  0  0  0  0  0  0  0
  1  2  1  0
  2  3  1  0
  3  4  1  1
  3  5  1  0
  5  6  1  0
  6  7  1  0
  7  8  1  0
  7  9  1  0
  7 10  1  0
A    1
 C1 
A    2
 N1 
A    3
 C2 
A    4
 C3 
A    5
 C4 
A    6
 C5 
A    7
 C6 
A    8
 C7 
A    9
 C8 
A   10
 C9 
M  END
>  <ref_url>  (50) 
nan

>  <submitter_name>  (50) 
nan

>  <submitter_email>  (50) 
nan

>  <submitter_institution>  (50) 
nan

>  <generation_date>  (50) 
nan

>  <method>  (50) 
nan

>  <ddG>  (50) 
-4.088019

>  <score>  (50) 
23.39015

>  <ref_mols>  (50) 
A71x0446a,A71x0515a

>  <original SMILES>  (50) 
CNC(C)CCC(C)(C)C

>  <ref_pdb>  (50) 
A71x0310a

>  <butcher #BAD>  (50) 
0

>  <butcher #GOOD>  (50) 
10

>  <butcher #protein clash>  (50) 
0

>  <butcher #solvent space>  (50) 
0

>  <butcher #pocket>  (50) 
10

>  <butcher #P1>  (50) 
9

>  <butcher #P2>  (50) 
0

>  <butcher #P1'>  (50) 
0

>  <butcher #P2'>  (50) 
0

>  <butcher #P3>  (50) 
1

>  <butcher #P4>  (50) 
0

>  <butcher #P5>  (50) 
0

>  <butcher #P6>  (50) 
0

$$$$
Z2458288926
     RDKit          3D

 20 22  0  0  0  0  0  0  0  0999 V2000
    9.3780    9.3620   23.7750 C   0  0  0  0  0  0  0  0  0  0  0  0
    8.7910   10.7090   24.0860 C   0  0  2  0  0  0  0  0  0  0  0  0
    9.5320   11.7500   23.3680 C   0  0  0  0  0  0  0  0  0  0  0  0
    8.8810   13.0000   23.6350 N   0  0  0  0  0  0  0  0  0  0  0  0
   10.0440   13.8280   23.8550 C   0  0  0  0  0  0  0  0  0  0  0  0
   10.3670   14.6690   24.9700 O   0  0  0  0  0  0  0  0  0  0  0  0
   11.0610   13.6340   22.7130 C   0  0  2  0  0  0  0  0  0  0  0  0
   12.4340   13.7280   23.2580 C   0  0  0  0  0  0  0  0  0  0  0  0
   12.7120   15.1940   23.2750 C   0  0  0  0  0  0  0  0  0  0  0  0
   12.0960   15.7010   22.1680 N   0  0  0  0  0  0  0  0  0  0  0  0
   12.9830   16.1320   21.1480 C   0  0  0  0  0  0  0  0  0  0  0  0
   11.2280   14.6610   21.5800 C   0  0  2  0  0  0  0  0  0  0  0  0
    9.9570   15.1770   20.8820 C   0  0  0  0  0  0  0  0  0  0  0  0
    7.5780   12.9690   24.3820 C   0  0  0  0  0  0  0  0  0  0  0  0
    7.5610   11.9760   25.5720 C   0  0  0  0  0  0  0  0  0  0  0  0
    6.3410   11.1200   25.8920 C   0  0  0  0  0  0  0  0  0  0  0  0
    5.3590   12.3100   25.8320 C   0  0  0  0  0  0  0  0  0  0  0  0
    5.9410   12.9260   27.0570 C   0  0  0  0  0  0  0  0  0  0  0  0
    7.4300   12.8700   26.8260 C   0  0  0  0  0  0  0  0  0  0  0  0
    8.6800   11.1000   25.4550 O   0  0  0  0  0  0  0  0  0  0  0  0
  2  1  1  1
  2  3  1  0
  3  4  1  0
  4  5  1  0
  5  6  2  0
  7  5  1  1
  7  8  1  0
  8  9  1  0
  9 10  1  0
 10 11  1  0
 10 12  1  0
 12 13  1  1
  4 14  1  0
 14 15  1  0
 15 16  1  0
 16 17  1  0
 17 18  1  0
 18 19  1  0
 15 20  1  0
 20  2  1  0
 12  7  1  0
 19 15  1  0
A    1
 C1 
A    2
 C2 
A    3
 C3 
A    4
 N1 
A    5
 C4 
A    6
 O1 
A    7
 C5 
A    8
 C6 
A    9
 C7 
A   10
 N2 
A   11
 C8 
A   12
 C9 
A   13
 C10
A   14
 C11
A   15
 C12
A   16
 C13
A   17
 C14
A   18
 C15
A   19
 C16
A   20
 O2 
M  END
>  <ref_url>  (51) 
nan

>  <submitter_name>  (51) 
nan

>  <submitter_email>  (51) 
nan

>  <submitter_institution>  (51) 
nan

>  <generation_date>  (51) 
nan

>  <method>  (51) 
nan

>  <ddG>  (51) 
-5.392851

>  <score>  (51) 
-11.504514

>  <ref_mols>  (51) 
A71x0446a,A71x0528a

>  <original SMILES>  (51) 
CC1CN(C(=O)[C@@H]2CCN(C)[C@@H]2C)CC2(CCCC2)O1

>  <ref_pdb>  (51) 
A71x0310a

>  <butcher #BAD>  (51) 
3

>  <butcher #GOOD>  (51) 
17

>  <butcher #protein clash>  (51) 
0

>  <butcher #solvent space>  (51) 
3

>  <butcher #pocket>  (51) 
17

>  <butcher #P1>  (51) 
12

>  <butcher #P2>  (51) 
3

>  <butcher #P1'>  (51) 
2

>  <butcher #P2'>  (51) 
0

>  <butcher #P3>  (51) 
0

>  <butcher #P4>  (51) 
0

>  <butcher #P5>  (51) 
0

>  <butcher #P6>  (51) 
0

$$$$
Z4436943043
     RDKit          3D

 19 20  0  0  0  0  0  0  0  0999 V2000
    4.5210   12.7610   27.9310 C   0  0  0  0  0  0  0  0  0  0  0  0
    5.5380   12.3510   26.8840 C   0  0  0  0  0  0  0  0  0  0  0  0
    5.8030   10.8860   26.6360 C   0  0  0  0  0  0  0  0  0  0  0  0
    6.8160   10.6440   25.5790 C   0  0  0  0  0  0  0  0  0  0  0  0
    7.2500   12.0400   25.0870 C   0  0  0  0  0  0  0  0  0  0  0  0
    8.2620   12.1600   23.9520 C   0  0  0  0  0  0  0  0  0  0  0  0
    9.6500   12.5540   24.1700 N   0  0  0  0  0  0  0  0  0  0  0  0
   10.4440   11.7580   23.2640 C   0  0  0  0  0  0  0  0  0  0  0  0
    9.7710   10.3850   23.2390 C   0  0  0  0  0  0  0  0  0  0  0  0
    8.7000   10.1790   24.3060 C   0  0  0  0  0  0  0  0  0  0  0  0
   10.6290    9.1590   23.1840 C   0  0  0  0  0  0  0  0  0  0  0  0
    9.7260   13.9260   23.6900 C   0  0  0  0  0  0  0  0  0  0  0  0
   11.0800   14.5310   23.3210 C   0  0  1  0  0  0  0  0  0  0  0  0
   12.2360   13.7270   22.7590 C   0  0  0  0  0  0  0  0  0  0  0  0
   13.1890   14.7660   22.1570 C   0  0  0  0  0  0  0  0  0  0  0  0
   12.2860   15.8520   21.8690 N   0  0  0  0  0  0  0  0  0  0  0  0
   11.0580   15.3000   21.9680 C   0  0  0  0  0  0  0  0  0  0  0  0
   10.1690   15.4210   21.1410 O   0  0  0  0  0  0  0  0  0  0  0  0
    6.4840   13.3730   25.8820 S   0  0  0  0  0  0  0  0  0  0  0  0
  1  2  1  0
  2  3  2  0
  3  4  1  0
  4  5  2  0
  5  6  1  0
  6  7  1  0
  7  8  1  0
  8  9  1  0
  9 10  1  0
  9 11  1  0
  7 12  1  0
 13 12  1  6
 13 14  1  0
 14 15  1  0
 15 16  1  0
 16 17  1  0
 17 18  2  0
  5 19  1  0
 19  2  1  0
 17 13  1  0
A    1
 C1 
A    2
 C2 
A    3
 C3 
A    4
 C4 
A    5
 C5 
A    6
 C6 
A    7
 N1 
A    8
 C7 
A    9
 C8 
A   10
 C9 
A   11
 C10
A   12
 C11
A   13
 C12
A   14
 C13
A   15
 C14
A   16
 N2 
A   17
 C15
A   18
 O1 
A   19
 S1 
M  END
>  <ref_url>  (52) 
nan

>  <submitter_name>  (52) 
nan

>  <submitter_email>  (52) 
nan

>  <submitter_institution>  (52) 
nan

>  <generation_date>  (52) 
nan

>  <method>  (52) 
nan

>  <ddG>  (52) 
-3.546619

>  <score>  (52) 
36.350223

>  <ref_mols>  (52) 
A71x0446a,A71x0528a

>  <original SMILES>  (52) 
Cc1ccc(CN(CC(C)C)CC2CCNC2=O)s1

>  <ref_pdb>  (52) 
A71x0310a

>  <butcher #BAD>  (52) 
2

>  <butcher #GOOD>  (52) 
17

>  <butcher #protein clash>  (52) 
0

>  <butcher #solvent space>  (52) 
2

>  <butcher #pocket>  (52) 
17

>  <butcher #P1>  (52) 
13

>  <butcher #P2>  (52) 
3

>  <butcher #P1'>  (52) 
1

>  <butcher #P2'>  (52) 
0

>  <butcher #P3>  (52) 
0

>  <butcher #P4>  (52) 
0

>  <butcher #P5>  (52) 
0

>  <butcher #P6>  (52) 
0

$$$$
Z3045524334
     RDKit          3D

 19 20  0  0  0  0  0  0  0  0999 V2000
    0.9690   13.9030   25.4380 C   0  0  0  0  0  0  0  0  0  0  0  0
    2.1280   13.4450   26.1990 N   0  0  0  0  0  0  0  0  0  0  0  0
    1.9610   12.7400   27.7110 S   0  0  0  0  0  6  0  0  0  0  0  0
    1.3310   11.4290   27.5510 O   0  0  0  0  0  0  0  0  0  0  0  0
    1.3900   13.7240   28.6030 O   0  0  0  0  0  0  0  0  0  0  0  0
    3.6820   12.5570   28.1690 C   0  0  0  0  0  0  0  0  0  0  0  0
    4.5640   13.7830   27.8360 C   0  0  0  0  0  0  0  0  0  0  0  0
    5.4940   13.4800   26.7230 N   0  0  0  0  0  0  0  0  0  0  0  0
    6.6310   12.7430   26.9410 C   0  0  0  0  0  0  0  0  0  0  0  0
    6.9460   12.3580   28.0610 O   0  0  0  0  0  0  0  0  0  0  0  0
    7.3590   12.5020   25.7870 N   0  0  0  0  0  0  0  0  0  0  0  0
    7.4160   13.5080   24.7180 C   0  0  0  0  0  0  0  0  0  0  0  0
    8.4550   13.1750   23.6510 C   0  0  0  0  0  0  0  0  0  0  0  0
    9.3850   12.0940   24.1320 C   0  0  2  0  0  0  0  0  0  0  0  0
   10.2920   11.5230   23.0540 C   0  0  0  0  0  0  0  0  0  0  0  0
   10.0870   10.0220   22.9380 C   0  0  0  0  0  0  0  0  0  0  0  0
    8.7490    9.8350   23.4870 N   0  0  0  0  0  0  0  0  0  0  0  0
    8.6520   10.8290   24.5790 C   0  0  2  0  0  0  0  0  0  0  0  0
    7.3590   11.1240   25.2970 C   0  0  0  0  0  0  0  0  0  0  0  0
  1  2  1  0
  2  3  1  0
  3  4  2  0
  3  5  2  0
  3  6  1  0
  6  7  1  0
  7  8  1  0
  8  9  1  0
  9 10  2  0
  9 11  1  0
 11 12  1  0
 12 13  1  0
 14 13  1  6
 14 15  1  0
 15 16  1  0
 16 17  1  0
 17 18  1  0
 18 19  1  6
 19 11  1  0
 18 14  1  0
A    1
 C1 
A    2
 N1 
A    3
 S1 
A    4
 O1 
A    5
 O2 
A    6
 C2 
A    7
 C3 
A    8
 N2 
A    9
 C4 
A   10
 O3 
A   11
 N3 
A   12
 C5 
A   13
 C6 
A   14
 C7 
A   15
 C8 
A   16
 C9 
A   17
 N4 
A   18
 C10
A   19
 C11
M  END
>  <ref_url>  (53) 
nan

>  <submitter_name>  (53) 
nan

>  <submitter_email>  (53) 
nan

>  <submitter_institution>  (53) 
nan

>  <generation_date>  (53) 
nan

>  <method>  (53) 
nan

>  <ddG>  (53) 
-3.967684

>  <score>  (53) 
-13.663839

>  <ref_mols>  (53) 
A71x0351a,A71x0450a

>  <original SMILES>  (53) 
CNS(=O)(=O)CCNC(=O)N1CC[C@@H]2CCN[C@@H]2C1

>  <ref_pdb>  (53) 
A71x0310a

>  <butcher #BAD>  (53) 
7

>  <butcher #GOOD>  (53) 
12

>  <butcher #protein clash>  (53) 
0

>  <butcher #solvent space>  (53) 
7

>  <butcher #pocket>  (53) 
12

>  <butcher #P1>  (53) 
10

>  <butcher #P2>  (53) 
0

>  <butcher #P1'>  (53) 
0

>  <butcher #P2'>  (53) 
0

>  <butcher #P3>  (53) 
2

>  <butcher #P4>  (53) 
0

>  <butcher #P5>  (53) 
0

>  <butcher #P6>  (53) 
0

$$$$
Z5231109132
     RDKit          3D

 18 18  0  0  0  0  0  0  0  0999 V2000
   10.2300   11.9640   23.0990 C   0  0  0  0  0  0  0  0  0  0  0  0
    9.1650   11.6010   24.0000 N   0  0  0  0  0  0  0  0  0  0  0  0
    8.2980   12.5310   24.5040 C   0  0  0  0  0  0  0  0  0  0  0  0
    8.4630   13.9810   24.0870 C   0  0  0  0  0  0  0  0  0  0  0  0
    7.1090   14.5230   23.6190 C   0  0  0  0  0  0  0  0  0  0  0  0
    6.9060   14.5510   21.8350 S   0  0  0  0  0  6  0  0  0  0  0  0
    5.4160   15.2810   21.5840 N   0  0  0  0  0  0  0  0  0  0  0  0
    7.9310   15.2940   21.1250 O   0  0  0  0  0  0  0  0  0  0  0  0
    6.6790   13.2180   21.4870 O   0  0  0  0  0  0  0  0  0  0  0  0
    8.7250   10.3020   24.1300 C   0  0  0  0  0  0  0  0  0  0  0  0
    9.3530    9.3330   23.7140 O   0  0  0  0  0  0  0  0  0  0  0  0
    7.5070   10.2000   24.7570 O   0  0  0  0  0  0  0  0  0  0  0  0
    7.1430   11.1440   25.7930 C   0  0  0  0  0  0  0  0  0  0  0  0
    6.5220   12.4420   25.3280 C   0  0  0  0  0  0  0  0  0  0  0  0
    6.6770   13.4880   26.4030 C   0  0  0  0  0  0  0  0  0  0  0  0
    6.0880   12.9280   27.6930 C   0  0  0  0  0  0  0  0  0  0  0  0
    5.3040   11.6310   27.4880 C   0  0  0  0  0  0  0  0  0  0  0  0
    6.1210   10.5280   26.7950 C   0  0  0  0  0  0  0  0  0  0  0  0
  1  2  1  0
  2  3  1  0
  3  4  1  0
  4  5  1  0
  5  6  1  0
  6  7  1  0
  6  8  2  0
  6  9  2  0
  2 10  1  0
 10 11  2  0
 10 12  1  0
 12 13  1  0
 13 14  1  0
 14 15  1  0
 15 16  1  0
 16 17  1  0
 17 18  1  0
 18 13  1  0
A    1
 C1 
A    2
 N1 
A    3
 C2 
A    4
 C3 
A    5
 C4 
A    6
 S1 
A    7
 N2 
A    8
 O1 
A    9
 O2 
A   10
 C5 
A   11
 O3 
A   12
 O4 
A   13
 C6 
A   14
 C7 
A   15
 C8 
A   16
 C9 
A   17
 C10
A   18
 C11
M  END
>  <ref_url>  (54) 
nan

>  <submitter_name>  (54) 
nan

>  <submitter_email>  (54) 
nan

>  <submitter_institution>  (54) 
nan

>  <generation_date>  (54) 
nan

>  <method>  (54) 
nan

>  <ddG>  (54) 
-1.829289

>  <score>  (54) 
102.130025

>  <ref_mols>  (54) 
A71x0719a

>  <original SMILES>  (54) 
CN(CCCS(N)(=O)=O)C(=O)OC1CCCCC1

>  <ref_pdb>  (54) 
A71x0310a

>  <butcher #BAD>  (54) 
4

>  <butcher #GOOD>  (54) 
14

>  <butcher #protein clash>  (54) 
2

>  <butcher #solvent space>  (54) 
2

>  <butcher #pocket>  (54) 
14

>  <butcher #P1>  (54) 
12

>  <butcher #P2>  (54) 
1

>  <butcher #P1'>  (54) 
0

>  <butcher #P2'>  (54) 
0

>  <butcher #P3>  (54) 
1

>  <butcher #P4>  (54) 
0

>  <butcher #P5>  (54) 
0

>  <butcher #P6>  (54) 
0

$$$$
Z5371548299
     RDKit          3D

 20 21  0  0  0  0  0  0  0  0999 V2000
    9.1840   14.7560   21.0450 C   0  0  0  0  0  0  0  0  0  0  0  0
    8.6150   14.0680   22.2070 N   0  0  0  0  0  0  0  0  0  0  0  0
    9.7150   13.5240   23.0030 C   0  0  0  0  0  0  0  0  0  0  0  0
   10.8660   13.9430   22.9190 O   0  0  0  0  0  0  0  0  0  0  0  0
    9.5960   12.3260   23.9510 C   0  0  2  0  0  0  0  0  0  0  0  0
   10.2630   11.2730   23.0970 C   0  0  0  0  0  0  0  0  0  0  0  0
   10.0190    9.7970   23.3090 C   0  0  0  0  0  0  0  0  0  0  0  0
    8.7220    9.4300   23.9390 C   0  0  0  0  0  0  0  0  0  0  0  0
    7.9680   10.4580   24.8270 C   0  0  0  0  0  0  0  0  0  0  0  0
    8.2600   11.9230   24.6520 C   0  0  2  0  0  0  0  0  0  0  0  0
    7.1210   12.7030   24.3460 N   0  0  0  0  0  0  0  0  0  0  0  0
    6.6640   13.4890   25.3460 C   0  0  0  0  0  0  0  0  0  0  0  0
    6.0530   13.0500   26.3290 O   0  0  0  0  0  0  0  0  0  0  0  0
    7.0030   14.9460   25.0880 C   0  0  1  0  0  0  0  0  0  0  0  0
    6.1680   15.4130   23.9190 C   0  0  0  0  0  0  0  0  0  0  0  0
    6.8910   15.7640   26.3920 C   0  0  0  0  0  0  0  0  0  0  0  0
    6.0440   15.2090   27.5030 C   0  0  0  0  0  0  0  0  0  0  0  0
    6.1300   16.5630   28.2720 C   0  0  0  0  0  0  0  0  0  0  0  0
    7.6550   16.4740   28.4680 C   0  0  0  0  0  0  0  0  0  0  0  0
    8.1870   15.9020   27.1730 C   0  0  0  0  0  0  0  0  0  0  0  0
  1  2  1  0
  2  3  1  0
  3  4  2  0
  5  3  1  6
  5  6  1  0
  6  7  1  0
  7  8  1  0
  8  9  1  0
  9 10  1  0
 10 11  1  6
 11 12  1  0
 12 13  2  0
 12 14  1  0
 14 15  1  6
 14 16  1  0
 16 17  1  0
 17 18  1  0
 18 19  1  0
 19 20  1  0
 10  5  1  0
 20 16  1  0
A    1
 C1 
A    2
 N1 
A    3
 C2 
A    4
 O1 
A    5
 C3 
A    6
 C4 
A    7
 C5 
A    8
 C6 
A    9
 C7 
A   10
 C8 
A   11
 N2 
A   12
 C9 
A   13
 O2 
A   14
 C10
A   15
 C11
A   16
 C12
A   17
 C13
A   18
 C14
A   19
 C15
A   20
 C16
M  END
>  <ref_url>  (55) 
nan

>  <submitter_name>  (55) 
nan

>  <submitter_email>  (55) 
nan

>  <submitter_institution>  (55) 
nan

>  <generation_date>  (55) 
nan

>  <method>  (55) 
nan

>  <ddG>  (55) 
-2.717686

>  <score>  (55) 
25.160967

>  <ref_mols>  (55) 
A71x0416a,A71x0566a

>  <original SMILES>  (55) 
CNC(=O)[C@@H]1CCCC[C@@H]1NC(=O)C(C)C1CCCC1

>  <ref_pdb>  (55) 
A71x0310a

>  <butcher #BAD>  (55) 
5

>  <butcher #GOOD>  (55) 
15

>  <butcher #protein clash>  (55) 
0

>  <butcher #solvent space>  (55) 
5

>  <butcher #pocket>  (55) 
15

>  <butcher #P1>  (55) 
13

>  <butcher #P2>  (55) 
1

>  <butcher #P1'>  (55) 
0

>  <butcher #P2'>  (55) 
0

>  <butcher #P3>  (55) 
1

>  <butcher #P4>  (55) 
0

>  <butcher #P5>  (55) 
0

>  <butcher #P6>  (55) 
0

$$$$
Z5371548695
     RDKit          3D

 20 21  0  0  0  0  0  0  0  0999 V2000
    9.1070   14.7460   21.0990 C   0  0  0  0  0  0  0  0  0  0  0  0
    8.7070   14.0650   22.2260 N   0  0  0  0  0  0  0  0  0  0  0  0
    9.7790   13.5410   23.0240 C   0  0  0  0  0  0  0  0  0  0  0  0
   11.1240   14.0370   22.9490 O   0  0  0  0  0  0  0  0  0  0  0  0
    9.6280   12.3430   23.9600 C   0  0  2  0  0  0  0  0  0  0  0  0
   10.2410   11.3040   23.0750 C   0  0  0  0  0  0  0  0  0  0  0  0
   10.0300    9.8280   23.3030 C   0  0  0  0  0  0  0  0  0  0  0  0
    8.7330    9.4850   23.9810 C   0  0  0  0  0  0  0  0  0  0  0  0
    7.9580   10.4980   24.8110 C   0  0  0  0  0  0  0  0  0  0  0  0
    8.2630   11.9790   24.6130 C   0  0  2  0  0  0  0  0  0  0  0  0
    7.1170   12.7020   24.1490 N   0  0  0  0  0  0  0  0  0  0  0  0
    6.7050   13.4560   25.3050 C   0  0  0  0  0  0  0  0  0  0  0  0
    6.0840   13.0050   26.2640 O   0  0  0  0  0  0  0  0  0  0  0  0
    7.1730   14.8780   25.1600 C   0  0  1  0  0  0  0  0  0  0  0  0
    6.1980   15.4640   24.1440 C   0  0  0  0  0  0  0  0  0  0  0  0
    7.1040   15.5640   26.5120 C   0  0  0  0  0  0  0  0  0  0  0  0
    5.8580   15.9910   27.2330 C   0  0  0  0  0  0  0  0  0  0  0  0
    6.3650   16.6020   28.5790 C   0  0  0  0  0  0  0  0  0  0  0  0
    7.7370   17.0730   28.0750 C   0  0  0  0  0  0  0  0  0  0  0  0
    8.3020   15.8920   27.3160 C   0  0  0  0  0  0  0  0  0  0  0  0
  1  2  1  0
  2  3  1  0
  3  4  2  0
  5  3  1  6
  5  6  1  0
  6  7  1  0
  7  8  1  0
  8  9  1  0
  9 10  1  0
 10 11  1  6
 11 12  1  0
 12 13  2  0
 12 14  1  0
 14 15  1  6
 14 16  1  0
 16 17  2  0
 17 18  1  0
 18 19  1  0
 19 20  1  0
 10  5  1  0
 20 16  1  0
A    1
 C1 
A    2
 N1 
A    3
 C2 
A    4
 O1 
A    5
 C3 
A    6
 C4 
A    7
 C5 
A    8
 C6 
A    9
 C7 
A   10
 C8 
A   11
 N2 
A   12
 C9 
A   13
 O2 
A   14
 C10
A   15
 C11
A   16
 C12
A   17
 C13
A   18
 C14
A   19
 C15
A   20
 C16
M  END
>  <ref_url>  (56) 
nan

>  <submitter_name>  (56) 
nan

>  <submitter_email>  (56) 
nan

>  <submitter_institution>  (56) 
nan

>  <generation_date>  (56) 
nan

>  <method>  (56) 
nan

>  <ddG>  (56) 
-3.2768

>  <score>  (56) 
24.032703

>  <ref_mols>  (56) 
A71x0416a,A71x0566a

>  <original SMILES>  (56) 
CNC(=O)[C@@H]1CCCC[C@@H]1NC(=O)C(C)C1=CCCC1

>  <ref_pdb>  (56) 
A71x0310a

>  <butcher #BAD>  (56) 
5

>  <butcher #GOOD>  (56) 
15

>  <butcher #protein clash>  (56) 
0

>  <butcher #solvent space>  (56) 
5

>  <butcher #pocket>  (56) 
15

>  <butcher #P1>  (56) 
13

>  <butcher #P2>  (56) 
1

>  <butcher #P1'>  (56) 
0

>  <butcher #P2'>  (56) 
0

>  <butcher #P3>  (56) 
1

>  <butcher #P4>  (56) 
0

>  <butcher #P5>  (56) 
0

>  <butcher #P6>  (56) 
0

$$$$
PV_000569027887
     RDKit          3D

 20 22  0  0  0  0  0  0  0  0999 V2000
    9.9380   14.9450   20.7600 C   0  0  0  0  0  0  0  0  0  0  0  0
    9.2590   14.1130   21.8320 C   0  0  0  0  0  0  0  0  0  0  0  0
   10.1380   13.0330   22.4410 C   0  0  0  0  0  0  0  0  0  0  0  0
   11.3600   13.1460   22.4870 O   0  0  0  0  0  0  0  0  0  0  0  0
    9.4440   11.9440   22.9580 N   0  0  0  0  0  0  0  0  0  0  0  0
    9.8830   10.5410   23.0070 C   0  0  0  0  0  0  0  0  0  0  0  0
    8.9320    9.5650   23.7210 C   0  0  0  0  0  0  0  0  0  0  0  0
    7.9960   10.1580   24.7970 C   0  0  0  0  0  0  0  0  0  0  0  0
    8.1910   11.5940   25.0530 C   0  0  2  0  0  0  0  0  0  0  0  0
    7.1150   12.4290   25.7380 C   0  0  0  0  0  0  0  0  0  0  0  0
    7.6040   13.7850   25.4350 N   0  0  0  0  0  0  0  0  0  0  0  0
    6.8950   14.9360   25.2780 C   0  0  0  0  0  0  0  0  0  0  0  0
    6.3980   15.2120   24.1910 O   0  0  0  0  0  0  0  0  0  0  0  0
    6.8090   15.8770   26.4650 C   0  0  1  0  0  0  0  0  0  0  0  0
    6.0570   15.3060   27.6390 C   0  0  0  0  0  0  0  0  0  0  0  0
    6.3750   16.3350   28.6950 C   0  0  0  0  0  0  0  0  0  0  0  0
    7.8260   16.7600   28.3290 C   0  0  0  0  0  0  0  0  0  0  0  0
    8.0800   16.2630   27.0110 O   0  0  0  0  0  0  0  0  0  0  0  0
    8.6750   13.6670   24.4880 C   0  0  0  0  0  0  0  0  0  0  0  0
    8.3750   12.3680   23.8110 C   0  0  1  0  0  0  0  0  0  0  0  0
  1  2  1  0
  2  3  1  0
  3  4  2  0
  3  5  1  0
  5  6  1  0
  6  7  1  0
  7  8  1  0
  9  8  1  6
  9 10  1  0
 10 11  1  0
 11 12  1  0
 12 13  2  0
 14 12  1  6
 14 15  1  0
 15 16  1  0
 16 17  1  0
 17 18  1  0
 11 19  1  0
 20 19  1  1
 20  5  1  0
 20  9  1  0
 18 14  1  0
A    1
 C1 
A    2
 C2 
A    3
 C3 
A    4
 O1 
A    5
 N1 
A    6
 C4 
A    7
 C5 
A    8
 C6 
A    9
 C7 
A   10
 C8 
A   11
 N2 
A   12
 C9 
A   13
 O2 
A   14
 C10
A   15
 C11
A   16
 C12
A   17
 C13
A   18
 O3 
A   19
 C14
A   20
 C15
M  END
>  <ref_url>  (57) 
nan

>  <submitter_name>  (57) 
nan

>  <submitter_email>  (57) 
nan

>  <submitter_institution>  (57) 
nan

>  <generation_date>  (57) 
nan

>  <method>  (57) 
nan

>  <ddG>  (57) 
-2.252612

>  <score>  (57) 
-2.855319

>  <ref_mols>  (57) 
A71x0416a,A71x0566a

>  <original SMILES>  (57) 
CCC(=O)N1CCC[C@H]2CN(C(=O)C3CCCO3)C[C@H]21

>  <ref_pdb>  (57) 
A71x0310a

>  <butcher #BAD>  (57) 
6

>  <butcher #GOOD>  (57) 
14

>  <butcher #protein clash>  (57) 
0

>  <butcher #solvent space>  (57) 
6

>  <butcher #pocket>  (57) 
14

>  <butcher #P1>  (57) 
12

>  <butcher #P2>  (57) 
1

>  <butcher #P1'>  (57) 
0

>  <butcher #P2'>  (57) 
0

>  <butcher #P3>  (57) 
1

>  <butcher #P4>  (57) 
0

>  <butcher #P5>  (57) 
0

>  <butcher #P6>  (57) 
0

$$$$
PV_001215077487
     RDKit          3D

 19 19  0  0  0  0  0  0  0  0999 V2000
    9.4770   16.2300   19.0580 C   0  0  0  0  0  0  0  0  0  0  0  0
   10.1350   15.0020   19.6920 C   0  0  0  0  0  0  0  0  0  0  0  0
   11.1560   15.2760   20.7770 C   0  0  0  0  0  0  0  0  0  0  0  0
   11.2300   16.3010   21.4270 O   0  0  0  0  0  0  0  0  0  0  0  0
   12.0310   14.2490   20.9750 N   0  0  0  0  0  0  0  0  0  0  0  0
   12.6020   14.1830   22.2950 C   0  0  0  0  0  0  0  0  0  0  0  0
   11.4890   13.7700   23.2370 C   0  0  0  0  0  0  0  0  0  0  0  0
   11.4130   14.1830   24.3950 O   0  0  0  0  0  0  0  0  0  0  0  0
   10.5890   12.8890   22.6820 N   0  0  0  0  0  0  0  0  0  0  0  0
    9.8380   12.0180   23.5520 C   0  0  2  0  0  0  0  0  0  0  0  0
    9.9840   10.5400   23.1320 C   0  0  0  0  0  0  0  0  0  0  0  0
    8.9990    9.5510   23.7090 C   0  0  0  0  0  0  0  0  0  0  0  0
    8.0480   10.0870   24.7670 C   0  0  0  0  0  0  0  0  0  0  0  0
    7.6540   11.5280   24.7080 C   0  0  0  0  0  0  0  0  0  0  0  0
    8.3880   12.4520   23.7480 C   0  0  1  0  0  0  0  0  0  0  0  0
    8.2500   13.7620   24.3500 N   0  0  0  0  0  0  0  0  0  0  0  0
    7.5750   13.8810   25.5430 C   0  0  0  0  0  0  0  0  0  0  0  0
    7.0240   12.6000   26.1300 C   0  0  0  0  0  0  0  0  0  0  0  0
    7.4240   14.9550   26.1030 O   0  0  0  0  0  0  0  0  0  0  0  0
  1  2  1  0
  2  3  1  0
  3  4  2  0
  3  5  1  0
  5  6  1  0
  6  7  1  0
  7  8  2  0
  7  9  1  0
 10  9  1  6
 10 11  1  0
 11 12  1  0
 12 13  1  0
 13 14  1  0
 14 15  1  0
 15 16  1  1
 16 17  1  0
 17 18  1  0
 17 19  2  0
 15 10  1  0
A    1
 C1 
A    2
 C2 
A    3
 C3 
A    4
 O1 
A    5
 N1 
A    6
 C4 
A    7
 C5 
A    8
 O2 
A    9
 N2 
A   10
 C6 
A   11
 C7 
A   12
 C8 
A   13
 C9 
A   14
 C10
A   15
 C11
A   16
 N3 
A   17
 C12
A   18
 C13
A   19
 O3 
M  END
>  <ref_url>  (58) 
nan

>  <submitter_name>  (58) 
nan

>  <submitter_email>  (58) 
nan

>  <submitter_institution>  (58) 
nan

>  <generation_date>  (58) 
nan

>  <method>  (58) 
nan

>  <ddG>  (58) 
-3.126944

>  <score>  (58) 
5856.445534

>  <ref_mols>  (58) 
A71x0554a,A71x0351a

>  <original SMILES>  (58) 
CCC(=O)NCC(=O)N[C@@H]1CCCC[C@H]1NC(C)=O

>  <ref_pdb>  (58) 
A71x0310a

>  <butcher #BAD>  (58) 
3

>  <butcher #GOOD>  (58) 
16

>  <butcher #protein clash>  (58) 
1

>  <butcher #solvent space>  (58) 
2

>  <butcher #pocket>  (58) 
16

>  <butcher #P1>  (58) 
11

>  <butcher #P2>  (58) 
3

>  <butcher #P1'>  (58) 
2

>  <butcher #P2'>  (58) 
0

>  <butcher #P3>  (58) 
0

>  <butcher #P4>  (58) 
0

>  <butcher #P5>  (58) 
0

>  <butcher #P6>  (58) 
0

$$$$
Z3640952086
     RDKit          3D

 19 19  0  0  0  0  0  0  0  0999 V2000
    9.6520   16.2860   18.5360 C   0  0  0  0  0  0  0  0  0  0  0  0
   10.6630   15.2050   18.8510 C   0  0  0  0  0  0  0  0  0  0  0  0
   10.6510   14.7770   20.3120 C   0  0  0  0  0  0  0  0  0  0  0  0
    9.6730   14.8730   21.0440 O   0  0  0  0  0  0  0  0  0  0  0  0
   11.8620   14.2660   20.7070 N   0  0  0  0  0  0  0  0  0  0  0  0
   12.3490   14.6250   22.0180 C   0  0  0  0  0  0  0  0  0  0  0  0
   11.3680   14.0480   23.0330 C   0  0  0  0  0  0  0  0  0  0  0  0
   11.3350   14.4060   24.2120 O   0  0  0  0  0  0  0  0  0  0  0  0
   10.5360   13.0770   22.5070 N   0  0  0  0  0  0  0  0  0  0  0  0
   10.3760   11.8960   23.3000 C   0  0  2  0  0  0  0  0  0  0  0  0
   10.1670   10.6080   22.5970 C   0  0  0  0  0  0  0  0  0  0  0  0
   10.1180    9.3830   23.4020 C   0  0  0  0  0  0  0  0  0  0  0  0
    8.7770    9.3770   24.0040 C   0  0  0  0  0  0  0  0  0  0  0  0
    8.3820   10.7590   24.5560 C   0  0  0  0  0  0  0  0  0  0  0  0
    9.2180   12.0270   24.2960 C   0  0  2  0  0  0  0  0  0  0  0  0
    8.3370   13.2480   24.0990 C   0  0  0  0  0  0  0  0  0  0  0  0
    7.6530   13.8050   25.3840 C   0  0  0  0  0  0  0  0  0  0  0  0
    6.9380   12.4570   25.6470 C   0  0  0  0  0  0  0  0  0  0  0  0
    6.6790   14.9390   25.1010 C   0  0  0  0  0  0  0  0  0  0  0  0
  1  2  1  0
  2  3  1  0
  3  4  2  0
  3  5  1  0
  5  6  1  0
  6  7  1  0
  7  8  2  0
  7  9  1  0
 10  9  1  6
 10 11  1  0
 11 12  1  0
 12 13  1  0
 13 14  1  0
 14 15  1  0
 15 16  1  6
 16 17  1  0
 17 18  1  0
 17 19  1  0
 15 10  1  0
A    1
 C1 
A    2
 C2 
A    3
 C3 
A    4
 O1 
A    5
 N1 
A    6
 C4 
A    7
 C5 
A    8
 O2 
A    9
 N2 
A   10
 C6 
A   11
 C7 
A   12
 C8 
A   13
 C9 
A   14
 C10
A   15
 C11
A   16
 C12
A   17
 C13
A   18
 C14
A   19
 C15
M  END
>  <ref_url>  (59) 
nan

>  <submitter_name>  (59) 
nan

>  <submitter_email>  (59) 
nan

>  <submitter_institution>  (59) 
nan

>  <generation_date>  (59) 
nan

>  <method>  (59) 
nan

>  <ddG>  (59) 
-1.037033

>  <score>  (59) 
2.271114

>  <ref_mols>  (59) 
A71x0554a,A71x0351a

>  <original SMILES>  (59) 
CCC(=O)NCC(=O)NC1CCCCC1CC(C)C

>  <ref_pdb>  (59) 
A71x0310a

>  <butcher #BAD>  (59) 
1

>  <butcher #GOOD>  (59) 
18

>  <butcher #protein clash>  (59) 
0

>  <butcher #solvent space>  (59) 
1

>  <butcher #pocket>  (59) 
18

>  <butcher #P1>  (59) 
11

>  <butcher #P2>  (59) 
4

>  <butcher #P1'>  (59) 
2

>  <butcher #P2'>  (59) 
0

>  <butcher #P3>  (59) 
1

>  <butcher #P4>  (59) 
0

>  <butcher #P5>  (59) 
0

>  <butcher #P6>  (59) 
0

$$$$
PV_003302182474
     RDKit          3D

 19 19  0  0  0  0  0  0  0  0999 V2000
   12.2870   14.7090   22.2760 C   0  0  0  0  0  0  0  0  0  0  0  0
   11.3820   13.8270   23.1510 C   0  0  0  0  0  0  0  0  0  0  0  0
   11.5880   13.9860   24.5500 O   0  0  0  0  0  0  0  0  0  0  0  0
   10.4490   12.9660   22.4250 N   0  0  0  0  0  0  0  0  0  0  0  0
    9.4450   12.1020   23.0480 C   0  0  1  0  0  0  0  0  0  0  0  0
    9.9220   10.6450   22.9910 C   0  0  0  0  0  0  0  0  0  0  0  0
    9.0120    9.6000   23.6940 C   0  0  0  0  0  0  0  0  0  0  0  0
    8.0620   10.1140   24.8180 C   0  0  0  0  0  0  0  0  0  0  0  0
    7.8410   11.5950   24.9030 C   0  0  0  0  0  0  0  0  0  0  0  0
    8.9950   12.4750   24.4360 C   0  0  2  0  0  0  0  0  0  0  0  0
    8.3840   13.7670   24.4690 N   0  0  0  0  0  0  0  0  0  0  0  0
    7.2280   13.8410   25.2260 C   0  0  0  0  0  0  0  0  0  0  0  0
    6.4610   12.9070   25.4670 O   0  0  0  0  0  0  0  0  0  0  0  0
    7.0120   15.2360   25.7800 C   0  0  0  0  0  0  0  0  0  0  0  0
    8.2560   15.6280   26.4760 N   0  0  0  0  0  0  0  0  0  0  0  0
    8.1310   15.7380   28.1310 S   0  0  0  0  0  6  0  0  0  0  0  0
    6.8780   14.5300   28.5100 C   0  0  0  0  0  0  0  0  0  0  0  0
    7.6030   17.0490   28.4110 O   0  0  0  0  0  0  0  0  0  0  0  0
    9.3880   15.2990   28.6860 O   0  0  0  0  0  0  0  0  0  0  0  0
  1  2  1  0
  2  3  2  0
  2  4  1  0
  5  4  1  1
  5  6  1  0
  6  7  1  0
  7  8  1  0
  8  9  1  0
  9 10  1  0
 10 11  1  6
 11 12  1  0
 12 13  2  0
 12 14  1  0
 14 15  1  0
 15 16  1  0
 16 17  1  0
 16 18  2  0
 16 19  2  0
 10  5  1  0
A    1
 C1 
A    2
 C2 
A    3
 O1 
A    4
 N1 
A    5
 C3 
A    6
 C4 
A    7
 C5 
A    8
 C6 
A    9
 C7 
A   10
 C8 
A   11
 N2 
A   12
 C9 
A   13
 O2 
A   14
 C10
A   15
 N3 
A   16
 S1 
A   17
 C11
A   18
 O3 
A   19
 O4 
M  END
>  <ref_url>  (60) 
nan

>  <submitter_name>  (60) 
nan

>  <submitter_email>  (60) 
nan

>  <submitter_institution>  (60) 
nan

>  <generation_date>  (60) 
nan

>  <method>  (60) 
nan

>  <ddG>  (60) 
-2.862903

>  <score>  (60) 
34.051265

>  <ref_mols>  (60) 
A71x0554a,A71x0351a

>  <original SMILES>  (60) 
CC(=O)N[C@H]1CCCC[C@@H]1NC(=O)CNS(C)(=O)=O

>  <ref_pdb>  (60) 
A71x0310a

>  <butcher #BAD>  (60) 
6

>  <butcher #GOOD>  (60) 
13

>  <butcher #protein clash>  (60) 
0

>  <butcher #solvent space>  (60) 
6

>  <butcher #pocket>  (60) 
13

>  <butcher #P1>  (60) 
11

>  <butcher #P2>  (60) 
0

>  <butcher #P1'>  (60) 
2

>  <butcher #P2'>  (60) 
0

>  <butcher #P3>  (60) 
0

>  <butcher #P4>  (60) 
0

>  <butcher #P5>  (60) 
0

>  <butcher #P6>  (60) 
0

$$$$
RAJSPNHIQAGDPC_UHFFF
     RDKit          3D

 12 12  0  0  0  0  0  0  0  0999 V2000
    6.6210   13.9860   23.1120 C   0  0  0  0  0  0  0  0  0  0  0  0
    5.5380   14.7650   23.6330 N   0  0  0  0  0  0  0  0  0  0  0  0
    5.6820   16.0720   23.9510 C   0  0  0  0  0  0  0  0  0  0  0  0
    6.5880   13.4270   21.8260 O   0  0  0  0  0  0  0  0  0  0  0  0
    7.7940   13.8430   24.0720 C   0  0  1  0  0  0  0  0  0  0  0  0
    7.3930   13.3250   25.4460 C   0  0  0  0  0  0  0  0  0  0  0  0
    7.2010   11.8240   25.5150 C   0  0  0  0  0  0  0  0  0  0  0  0
    8.2370   11.0540   24.7040 C   0  0  0  0  0  0  0  0  0  0  0  0
    9.4010   11.8370   24.0900 C   0  0  1  0  0  0  0  0  0  0  0  0
   10.1900   11.2580   23.3370 O   0  0  0  0  0  0  0  0  0  0  0  0
    9.9990    9.8410   23.1830 C   0  0  0  0  0  0  0  0  0  0  0  0
    8.9300   13.0860   23.3740 C   0  0  0  0  0  0  0  0  0  0  0  0
  1  2  1  0
  2  3  1  0
  1  4  2  0
  5  1  1  6
  5  6  1  0
  6  7  1  0
  7  8  1  0
  8  9  1  0
  9 10  1  6
 10 11  1  0
  9 12  1  0
 12  5  1  0
A    1
 C1 
A    2
 N1 
A    3
 C2 
A    4
 O1 
A    5
 C3 
A    6
 C4 
A    7
 C5 
A    8
 C6 
A    9
 C7 
A   10
 O2 
A   11
 C8 
A   12
 C9 
M  END
>  <ref_url>  (61) 
nan

>  <submitter_name>  (61) 
nan

>  <submitter_email>  (61) 
nan

>  <submitter_institution>  (61) 
nan

>  <generation_date>  (61) 
nan

>  <method>  (61) 
nan

>  <ddG>  (61) 
-5.371477

>  <score>  (61) 
3.157099

>  <ref_mols>  (61) 
A71x0375b,A71x0732a

>  <original SMILES>  (61) 
CNC(=O)C1CCCC(OC)C1

>  <ref_pdb>  (61) 
A71x0310a

>  <butcher #BAD>  (61) 
0

>  <butcher #GOOD>  (61) 
12

>  <butcher #protein clash>  (61) 
0

>  <butcher #solvent space>  (61) 
0

>  <butcher #pocket>  (61) 
12

>  <butcher #P1>  (61) 
8

>  <butcher #P2>  (61) 
0

>  <butcher #P1'>  (61) 
0

>  <butcher #P2'>  (61) 
0

>  <butcher #P3>  (61) 
4

>  <butcher #P4>  (61) 
0

>  <butcher #P5>  (61) 
0

>  <butcher #P6>  (61) 
0

$$$$
NKOBLRLZIGENRC_UHFFF
     RDKit          3D

 14 13  0  0  0  0  0  0  0  0999 V2000
   11.6130   13.9890   22.9800 C   0  0  0  0  0  0  0  0  0  0  0  0
   10.3130   13.3690   22.6490 N   0  0  0  0  0  0  0  0  0  0  0  0
    9.5400   12.9070   23.8450 C   0  0  2  0  0  0  0  0  0  0  0  0
    9.3500   11.3670   23.8660 C   0  0  0  0  0  0  0  0  0  0  0  0
   10.0550   10.7810   22.8760 O   0  0  0  0  0  0  0  0  0  0  0  0
   10.0300    9.3580   22.9550 C   0  0  0  0  0  0  0  0  0  0  0  0
    8.6810   10.7500   24.6750 O   0  0  0  0  0  0  0  0  0  0  0  0
    8.2060   13.6960   24.1620 C   0  0  0  0  0  0  0  0  0  0  0  0
    7.4560   13.1660   25.3770 C   0  0  0  0  0  0  0  0  0  0  0  0
    7.0740   11.6940   25.2990 C   0  0  0  0  0  0  0  0  0  0  0  0
    7.2560   14.0620   22.9830 C   0  0  0  0  0  0  0  0  0  0  0  0
    6.1150   15.0560   23.2810 C   0  0  0  0  0  0  0  0  0  0  0  0
   12.2400   14.6790   22.1910 O   0  0  0  0  0  0  0  0  0  0  0  0
   12.1600   13.7250   24.3500 C   0  0  0  0  0  0  0  0  0  0  0  0
  1  2  1  0
  3  2  1  6
  3  4  1  0
  4  5  1  0
  5  6  1  0
  4  7  2  0
  3  8  1  0
  8  9  1  0
  9 10  1  0
  8 11  1  0
 11 12  1  0
  1 13  2  0
  1 14  1  0
A    1
 C1 
A    2
 N1 
A    3
 C2 
A    4
 C3 
A    5
 O1 
A    6
 C4 
A    7
 O2 
A    8
 C5 
A    9
 C6 
A   10
 C7 
A   11
 C8 
A   12
 C9 
A   13
 O3 
A   14
 C10
M  END
>  <ref_url>  (62) 
nan

>  <submitter_name>  (62) 
nan

>  <submitter_email>  (62) 
nan

>  <submitter_institution>  (62) 
nan

>  <generation_date>  (62) 
nan

>  <method>  (62) 
nan

>  <ddG>  (62) 
-7.849882

>  <score>  (62) 
21.286453

>  <ref_mols>  (62) 
A71x0375b,A71x0732a

>  <original SMILES>  (62) 
CCC(CC)C(NC(C)=O)C(=O)OC

>  <ref_pdb>  (62) 
A71x0310a

>  <butcher #BAD>  (62) 
0

>  <butcher #GOOD>  (62) 
14

>  <butcher #protein clash>  (62) 
0

>  <butcher #solvent space>  (62) 
0

>  <butcher #pocket>  (62) 
14

>  <butcher #P1>  (62) 
11

>  <butcher #P2>  (62) 
0

>  <butcher #P1'>  (62) 
2

>  <butcher #P2'>  (62) 
0

>  <butcher #P3>  (62) 
1

>  <butcher #P4>  (62) 
0

>  <butcher #P5>  (62) 
0

>  <butcher #P6>  (62) 
0

$$$$
DUZAXYUCDSTIIL_UHFFF
     RDKit          3D

 13 12  0  0  0  0  0  0  0  0999 V2000
    8.4590   12.8400   24.2520 C   0  0  0  0  0  0  0  0  0  0  0  0
    7.6300   14.0210   24.3200 N   0  0  0  0  0  0  0  0  0  0  0  0
    6.9010   14.2230   23.0610 C   0  0  0  0  0  0  0  0  0  0  0  0
    5.7640   15.2030   23.3180 C   0  0  0  0  0  0  0  0  0  0  0  0
    6.2030   16.0950   24.2300 F   0  0  0  0  0  0  0  0  0  0  0  0
    8.3300   11.7540   25.1530 O   0  0  0  0  0  0  0  0  0  0  0  0
    9.4570   12.8570   23.1020 C   0  0  0  0  0  0  0  0  0  0  0  0
   10.1890   11.5220   23.0900 C   0  0  0  0  0  0  0  0  0  0  0  0
    9.4290   10.3190   23.6690 C   0  0  0  0  0  0  0  0  0  0  0  0
   10.0750    9.0330   23.1830 C   0  0  0  0  0  0  0  0  0  0  0  0
   10.4370   14.0490   23.1280 C   0  0  0  0  0  0  0  0  0  0  0  0
   11.8780   13.8110   22.6090 C   0  0  0  0  0  0  0  0  0  0  0  0
   12.6110   15.1500   22.4370 C   0  0  0  0  0  0  0  0  0  0  0  0
  1  2  1  0
  2  3  1  0
  3  4  1  0
  4  5  1  0
  1  6  2  0
  1  7  1  0
  7  8  1  0
  8  9  1  0
  9 10  1  0
  7 11  1  0
 11 12  1  0
 12 13  1  0
A    1
 C1 
A    2
 N1 
A    3
 C2 
A    4
 C3 
A    5
 F1 
A    6
 O1 
A    7
 C4 
A    8
 C5 
A    9
 C6 
A   10
 C7 
A   11
 C8 
A   12
 C9 
A   13
 C10
M  END
>  <ref_url>  (63) 
nan

>  <submitter_name>  (63) 
nan

>  <submitter_email>  (63) 
nan

>  <submitter_institution>  (63) 
nan

>  <generation_date>  (63) 
nan

>  <method>  (63) 
nan

>  <ddG>  (63) 
-5.914317

>  <score>  (63) 
3.965761

>  <ref_mols>  (63) 
A71x0732a,A71x0554a

>  <original SMILES>  (63) 
CCCC(CCC)C(=O)NCCF

>  <ref_pdb>  (63) 
A71x0310a

>  <butcher #BAD>  (63) 
0

>  <butcher #GOOD>  (63) 
13

>  <butcher #protein clash>  (63) 
0

>  <butcher #solvent space>  (63) 
0

>  <butcher #pocket>  (63) 
13

>  <butcher #P1>  (63) 
10

>  <butcher #P2>  (63) 
0

>  <butcher #P1'>  (63) 
1

>  <butcher #P2'>  (63) 
0

>  <butcher #P3>  (63) 
2

>  <butcher #P4>  (63) 
0

>  <butcher #P5>  (63) 
0

>  <butcher #P6>  (63) 
0

$$$$
SXIHMVREERAYOW_UHFFF
     RDKit          3D

 13 12  0  0  0  0  0  0  0  0999 V2000
    8.3660   12.9360   24.1880 C   0  0  0  0  0  0  0  0  0  0  0  0
    7.5730   14.0970   23.8360 N   0  0  0  0  0  0  0  0  0  0  0  0
    6.9170   14.2470   22.6250 C   0  0  0  0  0  0  0  0  0  0  0  0
    5.7820   15.2320   22.8300 C   0  0  0  0  0  0  0  0  0  0  0  0
    5.8280   15.9320   24.1720 C   0  0  0  0  0  0  0  0  0  0  0  0
    7.8300   11.8610   24.9380 O   0  0  0  0  0  0  0  0  0  0  0  0
    9.8190   12.9680   23.7070 C   0  0  0  0  0  0  0  0  0  0  0  0
   10.2310   11.6140   23.1860 C   0  0  0  0  0  0  0  0  0  0  0  0
    9.4350   10.3970   23.6690 C   0  0  0  0  0  0  0  0  0  0  0  0
   10.0700    9.1020   23.1790 C   0  0  0  0  0  0  0  0  0  0  0  0
   10.1500   13.8910   22.6530 C   0  0  0  0  0  0  0  0  0  0  0  0
   11.4640   14.7370   22.5630 C   0  0  0  0  0  0  0  0  0  0  0  0
   12.2490   13.4920   22.9440 C   0  0  0  0  0  0  0  0  0  0  0  0
  1  2  1  0
  2  3  1  0
  3  4  1  0
  4  5  3  0
  1  6  2  0
  1  7  1  0
  7  8  1  0
  8  9  1  0
  9 10  1  0
  7 11  1  0
 11 12  1  0
 12 13  1  0
A    1
 C1 
A    2
 N1 
A    3
 C2 
A    4
 C3 
A    5
 C4 
A    6
 O1 
A    7
 C5 
A    8
 C6 
A    9
 C7 
A   10
 C8 
A   11
 C9 
A   12
 C10
A   13
 C11
M  END
>  <ref_url>  (64) 
nan

>  <submitter_name>  (64) 
nan

>  <submitter_email>  (64) 
nan

>  <submitter_institution>  (64) 
nan

>  <generation_date>  (64) 
nan

>  <method>  (64) 
nan

>  <ddG>  (64) 
-5.75581

>  <score>  (64) 
19.193952

>  <ref_mols>  (64) 
A71x0732a,A71x0554a

>  <original SMILES>  (64) 
C#CCNC(=O)C(CCC)CCC

>  <ref_pdb>  (64) 
A71x0310a

>  <butcher #BAD>  (64) 
0

>  <butcher #GOOD>  (64) 
13

>  <butcher #protein clash>  (64) 
0

>  <butcher #solvent space>  (64) 
0

>  <butcher #pocket>  (64) 
13

>  <butcher #P1>  (64) 
11

>  <butcher #P2>  (64) 
0

>  <butcher #P1'>  (64) 
0

>  <butcher #P2'>  (64) 
0

>  <butcher #P3>  (64) 
2

>  <butcher #P4>  (64) 
0

>  <butcher #P5>  (64) 
0

>  <butcher #P6>  (64) 
0

$$$$
PEMYUJGYHNYLCW_UHFFF
     RDKit          3D

 13 12  0  0  0  0  0  0  0  0999 V2000
    8.5280   12.7760   24.3850 C   0  0  0  0  0  0  0  0  0  0  0  0
    7.7810   13.9160   24.5230 N   0  0  0  0  0  0  0  0  0  0  0  0
    6.4960   13.9230   23.8630 C   0  0  0  0  0  0  0  0  0  0  0  0
    6.0070   15.2530   23.5510 C   0  0  0  0  0  0  0  0  0  0  0  0
    5.6680   16.3020   23.2850 N   0  0  0  0  0  0  0  0  0  0  0  0
    8.4510   11.8410   25.1640 O   0  0  0  0  0  0  0  0  0  0  0  0
    9.4130   12.7820   23.1480 C   0  0  0  0  0  0  0  0  0  0  0  0
   10.1750   11.4620   23.0790 C   0  0  0  0  0  0  0  0  0  0  0  0
    9.4400   10.2600   23.6520 C   0  0  0  0  0  0  0  0  0  0  0  0
   10.1090    8.9890   23.1760 C   0  0  0  0  0  0  0  0  0  0  0  0
   10.3310   14.0200   23.0630 C   0  0  0  0  0  0  0  0  0  0  0  0
   11.7580   13.8890   22.4960 C   0  0  0  0  0  0  0  0  0  0  0  0
   12.5540   15.1860   22.5520 C   0  0  0  0  0  0  0  0  0  0  0  0
  1  2  1  0
  2  3  1  0
  3  4  1  0
  4  5  3  0
  1  6  2  0
  1  7  1  0
  7  8  1  0
  8  9  1  0
  9 10  1  0
  7 11  1  0
 11 12  1  0
 12 13  1  0
A    1
 C1 
A    2
 N1 
A    3
 C2 
A    4
 C3 
A    5
 N2 
A    6
 O1 
A    7
 C4 
A    8
 C5 
A    9
 C6 
A   10
 C7 
A   11
 C8 
A   12
 C9 
A   13
 C10
M  END
>  <ref_url>  (65) 
nan

>  <submitter_name>  (65) 
nan

>  <submitter_email>  (65) 
nan

>  <submitter_institution>  (65) 
nan

>  <generation_date>  (65) 
nan

>  <method>  (65) 
nan

>  <ddG>  (65) 
-4.800668

>  <score>  (65) 
2.619963

>  <ref_mols>  (65) 
A71x0732a,A71x0554a

>  <original SMILES>  (65) 
CCCC(CCC)C(=O)NCC#N

>  <ref_pdb>  (65) 
A71x0310a

>  <butcher #BAD>  (65) 
0

>  <butcher #GOOD>  (65) 
13

>  <butcher #protein clash>  (65) 
0

>  <butcher #solvent space>  (65) 
0

>  <butcher #pocket>  (65) 
13

>  <butcher #P1>  (65) 
10

>  <butcher #P2>  (65) 
0

>  <butcher #P1'>  (65) 
1

>  <butcher #P2'>  (65) 
0

>  <butcher #P3>  (65) 
2

>  <butcher #P4>  (65) 
0

>  <butcher #P5>  (65) 
0

>  <butcher #P6>  (65) 
0

$$$$
ZNPYCEOJESXMAD_UHFFF
     RDKit          3D

 15 15  0  0  0  0  0  0  0  0999 V2000
   11.6940   14.3800   23.2210 N   0  0  0  0  0  0  0  0  0  0  0  0
   12.1990   13.6380   24.3780 C   0  0  0  0  0  0  0  0  0  0  0  0
   13.6810   13.7720   24.7550 C   0  0  0  0  0  0  0  0  0  0  0  0
   13.8930   14.5680   26.0880 C   0  0  0  0  0  0  0  0  0  0  0  0
   14.9380   13.9730   27.0180 C   0  0  0  0  0  0  0  0  0  0  0  0
   15.1690   14.8600   28.2300 C   0  0  0  0  0  0  0  0  0  0  0  0
   15.5450   12.9200   26.8340 O   0  0  0  0  0  0  0  0  0  0  0  0
   10.4730   13.7520   22.6620 C   0  0  0  0  0  0  0  0  0  0  0  0
    9.7990   12.6780   23.5180 C   0  0  2  0  0  0  0  0  0  0  0  0
    9.8960   11.4020   22.8830 O   0  0  0  0  0  0  0  0  0  0  0  0
    9.3260   10.2900   23.5700 C   0  0  0  0  0  0  0  0  0  0  0  0
    8.2850   10.6270   24.6690 C   0  0  0  0  0  0  0  0  0  0  0  0
    7.7200   12.0440   24.7460 C   0  0  0  0  0  0  0  0  0  0  0  0
    8.3390   13.0230   23.7600 C   0  0  0  0  0  0  0  0  0  0  0  0
   12.6860   14.5700   22.1620 C   0  0  0  0  0  0  0  0  0  0  0  0
  1  2  1  0
  2  3  1  0
  3  4  1  0
  4  5  1  0
  5  6  1  0
  5  7  2  0
  1  8  1  0
  9  8  1  6
  9 10  1  0
 10 11  1  0
 11 12  1  0
 12 13  1  0
 13 14  1  0
  1 15  1  0
 14  9  1  0
A    1
 N1 
A    2
 C1 
A    3
 C2 
A    4
 C3 
A    5
 C4 
A    6
 C5 
A    7
 O1 
A    8
 C6 
A    9
 C7 
A   10
 O2 
A   11
 C8 
A   12
 C9 
A   13
 C10
A   14
 C11
A   15
 C12
M  END
>  <ref_url>  (66) 
nan

>  <submitter_name>  (66) 
nan

>  <submitter_email>  (66) 
nan

>  <submitter_institution>  (66) 
nan

>  <generation_date>  (66) 
nan

>  <method>  (66) 
nan

>  <ddG>  (66) 
-5.171318

>  <score>  (66) 
8.294876

>  <ref_mols>  (66) 
A71x0732a,A71x0375b

>  <original SMILES>  (66) 
CC(=O)CCCN(C)CC1CCCCO1

>  <ref_pdb>  (66) 
A71x0310a

>  <butcher #BAD>  (66) 
0

>  <butcher #GOOD>  (66) 
15

>  <butcher #protein clash>  (66) 
0

>  <butcher #solvent space>  (66) 
0

>  <butcher #pocket>  (66) 
15

>  <butcher #P1>  (66) 
7

>  <butcher #P2>  (66) 
0

>  <butcher #P1'>  (66) 
7

>  <butcher #P2'>  (66) 
1

>  <butcher #P3>  (66) 
0

>  <butcher #P4>  (66) 
0

>  <butcher #P5>  (66) 
0

>  <butcher #P6>  (66) 
0

$$$$
UGALIHVAQZBMAA_UHFFF
     RDKit          3D

 16 16  0  0  0  0  0  0  0  0999 V2000
    6.7070   13.8950   23.4530 C   0  0  0  0  0  0  0  0  0  0  0  0
    7.7040   13.4870   24.3920 N   0  0  0  0  0  0  0  0  0  0  0  0
    8.4990   12.4330   23.8230 C   0  0  1  0  0  0  0  0  0  0  0  0
    9.9420   12.8030   23.7610 C   0  0  2  0  0  0  0  0  0  0  0  0
   10.3490   13.9160   22.8130 C   0  0  0  0  0  0  0  0  0  0  0  0
   11.5920   14.4230   23.1780 N   0  0  0  0  0  0  0  0  0  0  0  0
   12.2860   14.0210   24.3810 C   0  0  0  0  0  0  0  0  0  0  0  0
   12.3390   14.7860   22.0880 C   0  0  0  0  0  0  0  0  0  0  0  0
   10.7430   11.6810   23.1890 C   0  0  0  0  0  0  0  0  0  0  0  0
   10.1830   10.2380   23.1340 C   0  0  0  0  0  0  0  0  0  0  0  0
    8.9220    9.9570   23.9250 C   0  0  0  0  0  0  0  0  0  0  0  0
    8.2730   11.1540   24.5960 C   0  0  0  0  0  0  0  0  0  0  0  0
    6.6780   13.4620   22.1010 O   0  0  0  0  0  0  0  0  0  0  0  0
    5.6900   14.8030   24.0430 C   0  0  0  0  0  0  0  0  0  0  0  0
    5.4610   15.8020   22.9710 C   0  0  0  0  0  0  0  0  0  0  0  0
    6.2340   15.4680   25.3030 C   0  0  0  0  0  0  0  0  0  0  0  0
  1  2  1  0
  3  2  1  1
  3  4  1  0
  4  5  1  6
  5  6  1  0
  6  7  1  0
  6  8  1  0
  4  9  1  0
  9 10  1  0
 10 11  1  0
 11 12  1  0
  1 13  2  0
  1 14  1  0
 14 15  1  0
 14 16  1  0
 12  3  1  0
A    1
 C1 
A    2
 N1 
A    3
 C2 
A    4
 C3 
A    5
 C4 
A    6
 N2 
A    7
 C5 
A    8
 C6 
A    9
 C7 
A   10
 C8 
A   11
 C9 
A   12
 C10
A   13
 O1 
A   14
 C11
A   15
 C12
A   16
 C13
M  END
>  <ref_url>  (67) 
nan

>  <submitter_name>  (67) 
nan

>  <submitter_email>  (67) 
nan

>  <submitter_institution>  (67) 
nan

>  <generation_date>  (67) 
nan

>  <method>  (67) 
nan

>  <ddG>  (67) 
-5.558617

>  <score>  (67) 
6.933608

>  <ref_mols>  (67) 
A71x0732a,A71x0375b

>  <original SMILES>  (67) 
CC(C)C(=O)NC1CCCCC1CN(C)C

>  <ref_pdb>  (67) 
A71x0310a

>  <butcher #BAD>  (67) 
0

>  <butcher #GOOD>  (67) 
16

>  <butcher #protein clash>  (67) 
0

>  <butcher #solvent space>  (67) 
0

>  <butcher #pocket>  (67) 
16

>  <butcher #P1>  (67) 
10

>  <butcher #P2>  (67) 
0

>  <butcher #P1'>  (67) 
3

>  <butcher #P2'>  (67) 
0

>  <butcher #P3>  (67) 
3

>  <butcher #P4>  (67) 
0

>  <butcher #P5>  (67) 
0

>  <butcher #P6>  (67) 
0

$$$$
JYNLVTWNUYBLER_UHFFF
     RDKit          3D

 12 12  0  0  0  0  0  0  0  0999 V2000
   10.4520   13.5600   23.0610 N   0  0  0  0  0  0  0  0  0  0  0  0
   11.5750   14.2600   23.3450 C   0  0  2  0  0  0  0  0  0  0  0  0
   12.4660   14.5240   22.1800 C   0  0  0  0  0  0  0  0  0  0  0  0
   12.2200   15.9440   21.8060 C   0  0  0  0  0  0  0  0  0  0  0  0
   12.4460   13.6400   24.3880 C   0  0  0  0  0  0  0  0  0  0  0  0
    9.6130   12.9510   24.0650 C   0  0  0  0  0  0  0  0  0  0  0  0
    9.0460   11.6230   23.5330 C   0  0  0  0  0  0  0  0  0  0  0  0
    8.2610   10.9450   24.6680 C   0  0  0  0  0  0  0  0  0  0  0  0
    7.2790   11.8480   25.4010 C   0  0  0  0  0  0  0  0  0  0  0  0
    7.1470   13.1280   24.5850 C   0  0  0  0  0  0  0  0  0  0  0  0
    8.4550   13.8780   24.4590 C   0  0  0  0  0  0  0  0  0  0  0  0
    9.7380   13.9920   21.9640 C   0  0  0  0  0  0  0  0  0  0  0  0
  1  2  1  0
  2  3  1  0
  3  4  1  0
  2  5  1  1
  1  6  1  0
  6  7  1  0
  7  8  1  0
  8  9  1  0
  9 10  1  0
 10 11  1  0
  1 12  1  0
 11  6  1  0
A    1
 N1 
A    2
 C1 
A    3
 C2 
A    4
 C3 
A    5
 C4 
A    6
 C5 
A    7
 C6 
A    8
 C7 
A    9
 C8 
A   10
 C9 
A   11
 C10
A   12
 C11
M  END
>  <ref_url>  (68) 
nan

>  <submitter_name>  (68) 
nan

>  <submitter_email>  (68) 
nan

>  <submitter_institution>  (68) 
nan

>  <generation_date>  (68) 
nan

>  <method>  (68) 
nan

>  <ddG>  (68) 
-4.891939

>  <score>  (68) 
-3.957705

>  <ref_mols>  (68) 
A71x0375b,A71x0922a

>  <original SMILES>  (68) 
CCC(C)N(C)C1CCCCC1

>  <ref_pdb>  (68) 
A71x0310a

>  <butcher #BAD>  (68) 
0

>  <butcher #GOOD>  (68) 
12

>  <butcher #protein clash>  (68) 
0

>  <butcher #solvent space>  (68) 
0

>  <butcher #pocket>  (68) 
12

>  <butcher #P1>  (68) 
9

>  <butcher #P2>  (68) 
1

>  <butcher #P1'>  (68) 
2

>  <butcher #P2'>  (68) 
0

>  <butcher #P3>  (68) 
0

>  <butcher #P4>  (68) 
0

>  <butcher #P5>  (68) 
0

>  <butcher #P6>  (68) 
0

$$$$
JYTLDMHGTQCRBI_UHFFF
     RDKit          3D

 16 16  0  0  0  0  0  0  0  0999 V2000
   10.4740   14.0990   22.7320 N   0  0  0  0  0  0  0  0  0  0  0  0
    9.6340   13.3230   23.6300 C   0  0  0  0  0  0  0  0  0  0  0  0
    9.8890   11.8560   23.3880 C   0  0  0  0  0  0  0  0  0  0  0  0
    8.9310   10.9520   24.1180 C   0  0  0  0  0  0  0  0  0  0  0  0
    8.0240   11.5780   25.0740 N   0  0  0  0  0  0  0  0  0  0  0  0
    7.1350   10.7220   25.6210 C   0  0  0  0  0  0  0  0  0  0  0  0
    7.2260    9.5890   25.2370 O   0  0  0  0  0  0  0  0  0  0  0  0
    6.1040   11.1830   26.6440 C   0  0  0  0  0  0  0  0  0  0  0  0
    5.9650   10.1730   27.8300 C   0  0  0  0  0  0  0  0  0  0  0  0
    4.4780   10.4710   28.0260 C   0  0  0  0  0  0  0  0  0  0  0  0
    4.1460    9.0240   27.6650 C   0  0  0  0  0  0  0  0  0  0  0  0
    7.5290   12.9320   24.8570 C   0  0  0  0  0  0  0  0  0  0  0  0
    8.1440   13.6410   23.6720 C   0  0  0  0  0  0  0  0  0  0  0  0
   11.7420   14.6210   23.2490 C   0  0  0  0  0  0  0  0  0  0  0  0
   12.6740   15.0040   22.1390 C   0  0  0  0  0  0  0  0  0  0  0  0
   12.3990   13.5850   24.1590 C   0  0  0  0  0  0  0  0  0  0  0  0
  1  2  1  0
  2  3  1  0
  3  4  1  0
  4  5  1  0
  5  6  1  0
  6  7  2  0
  6  8  1  0
  8  9  1  0
  9 10  1  0
 10 11  1  0
  5 12  1  0
 12 13  1  0
  1 14  1  0
 14 15  1  0
 14 16  1  0
 13  2  1  0
A    1
 N1 
A    2
 C1 
A    3
 C2 
A    4
 C3 
A    5
 N2 
A    6
 C4 
A    7
 O1 
A    8
 C5 
A    9
 C6 
A   10
 C7 
A   11
 C8 
A   12
 C9 
A   13
 C10
A   14
 C11
A   15
 C12
A   16
 C13
M  END
>  <ref_url>  (69) 
nan

>  <submitter_name>  (69) 
nan

>  <submitter_email>  (69) 
nan

>  <submitter_institution>  (69) 
nan

>  <generation_date>  (69) 
nan

>  <method>  (69) 
nan

>  <ddG>  (69) 
-6.760045

>  <score>  (69) 
22.662839

>  <ref_mols>  (69) 
A71x0375b,A71x0556a

>  <original SMILES>  (69) 
CCCCC(=O)N1CCC(NC(C)C)CC1

>  <ref_pdb>  (69) 
A71x0310a

>  <butcher #BAD>  (69) 
3

>  <butcher #GOOD>  (69) 
13

>  <butcher #protein clash>  (69) 
0

>  <butcher #solvent space>  (69) 
3

>  <butcher #pocket>  (69) 
13

>  <butcher #P1>  (69) 
10

>  <butcher #P2>  (69) 
0

>  <butcher #P1'>  (69) 
3

>  <butcher #P2'>  (69) 
0

>  <butcher #P3>  (69) 
0

>  <butcher #P4>  (69) 
0

>  <butcher #P5>  (69) 
0

>  <butcher #P6>  (69) 
0

$$$$
OYGFGBMYQZVZBI_UHFFF
     RDKit          3D

 17 18  0  0  0  0  0  0  0  0999 V2000
    9.4920   13.3680   23.0320 O   0  0  0  0  0  0  0  0  0  0  0  0
   10.7010   13.9830   23.1990 C   0  0  0  0  0  0  0  0  0  0  0  0
   11.0760   14.4640   24.2620 O   0  0  0  0  0  0  0  0  0  0  0  0
   11.4980   13.9830   21.9110 C   0  0  0  0  0  0  0  0  0  0  0  0
   12.4370   15.1860   21.8380 C   0  0  0  0  0  0  0  0  0  0  0  0
    8.8320   13.0170   24.2390 C   0  0  1  0  0  0  0  0  0  0  0  0
    7.5070   13.7430   24.4590 C   0  0  1  0  0  0  0  0  0  0  0  0
    6.5970   13.6950   23.3040 N   0  0  0  0  0  0  0  0  0  0  0  0
    7.1310   13.8950   22.0450 C   0  0  0  0  0  0  0  0  0  0  0  0
    5.4110   14.5520   23.4330 C   0  0  0  0  0  0  0  0  0  0  0  0
    4.4890   14.3270   24.6230 C   0  0  0  0  0  0  0  0  0  0  0  0
    4.7520   15.6590   25.1700 C   0  0  0  0  0  0  0  0  0  0  0  0
    5.7670   15.9450   24.0700 C   0  0  0  0  0  0  0  0  0  0  0  0
    6.9840   13.2200   25.8230 C   0  0  0  0  0  0  0  0  0  0  0  0
    6.6580   11.7350   25.8760 C   0  0  0  0  0  0  0  0  0  0  0  0
    7.6630   10.8290   25.1570 C   0  0  0  0  0  0  0  0  0  0  0  0
    8.6560   11.4910   24.1970 C   0  0  0  0  0  0  0  0  0  0  0  0
  1  2  1  0
  2  3  2  0
  2  4  1  0
  4  5  1  0
  6  1  1  6
  6  7  1  0
  7  8  1  6
  8  9  1  0
  8 10  1  0
 10 11  1  0
 11 12  1  0
 12 13  1  0
  7 14  1  0
 14 15  1  0
 15 16  1  0
 16 17  1  0
 17  6  1  0
 13 10  1  0
A    1
 O1 
A    2
 C1 
A    3
 O2 
A    4
 C2 
A    5
 C3 
A    6
 C4 
A    7
 C5 
A    8
 N1 
A    9
 C6 
A   10
 C7 
A   11
 C8 
A   12
 C9 
A   13
 C10
A   14
 C11
A   15
 C12
A   16
 C13
A   17
 C14
M  END
>  <ref_url>  (70) 
nan

>  <submitter_name>  (70) 
nan

>  <submitter_email>  (70) 
nan

>  <submitter_institution>  (70) 
nan

>  <generation_date>  (70) 
nan

>  <method>  (70) 
nan

>  <ddG>  (70) 
-4.321925

>  <score>  (70) 
3.045403

>  <ref_mols>  (70) 
A71x0451a,A71x0732a

>  <original SMILES>  (70) 
CCC(=O)OC1CCCCC1N(C)C1CCC1

>  <ref_pdb>  (70) 
A71x0310a

>  <butcher #BAD>  (70) 
0

>  <butcher #GOOD>  (70) 
17

>  <butcher #protein clash>  (70) 
0

>  <butcher #solvent space>  (70) 
0

>  <butcher #pocket>  (70) 
17

>  <butcher #P1>  (70) 
12

>  <butcher #P2>  (70) 
0

>  <butcher #P1'>  (70) 
1

>  <butcher #P2'>  (70) 
0

>  <butcher #P3>  (70) 
4

>  <butcher #P4>  (70) 
0

>  <butcher #P5>  (70) 
0

>  <butcher #P6>  (70) 
0

$$$$
CCEMVLRUVBVURZ_UHFFF
     RDKit          3D

 16 18  0  0  0  0  0  0  0  0999 V2000
    6.1130   11.0450   26.3180 C   0  0  0  0  0  0  0  0  0  0  0  0
    5.9380    9.9400   27.1250 N   0  0  0  0  0  0  0  0  0  0  0  0
    4.7790    9.9040   28.0470 C   0  0  0  0  0  0  0  0  0  0  0  0
    4.9960    9.1070   29.3250 C   0  0  0  0  0  0  0  0  0  0  0  0
    4.0170    8.0890   28.9380 C   0  0  0  0  0  0  0  0  0  0  0  0
    3.6280    8.8360   27.6710 C   0  0  0  0  0  0  0  0  0  0  0  0
    5.2300   12.1700   26.4330 O   0  0  0  0  0  0  0  0  0  0  0  0
    7.2250   11.0470   25.3540 C   0  0  0  0  0  0  0  0  0  0  0  0
    7.7330   12.2420   24.6140 C   0  0  0  0  0  0  0  0  0  0  0  0
    8.8350   11.7910   23.7840 C   0  0  0  0  0  0  0  0  0  0  0  0
    9.3950   12.7590   23.0810 C   0  0  0  0  0  0  0  0  0  0  0  0
    8.2090   13.7100   22.9230 C   0  0  0  0  0  0  0  0  0  0  0  0
    7.5670   13.6870   24.3780 C   0  0  0  0  0  0  0  0  0  0  0  0
    8.9250   10.4610   24.0060 N   0  0  0  0  0  0  0  0  0  0  0  0
    9.8610    9.5640   23.3750 C   0  0  0  0  0  0  0  0  0  0  0  0
    7.9930    9.9840   24.9380 N   0  0  0  0  0  0  0  0  0  0  0  0
  1  2  1  0
  2  3  1  0
  3  4  1  0
  4  5  1  0
  5  6  1  0
  1  7  2  0
  1  8  1  0
  8  9  1  0
  9 10  2  0
 10 11  1  0
 11 12  1  0
 12 13  1  0
 10 14  1  0
 14 15  1  0
 14 16  1  0
  6  3  1  0
  8 16  2  0
 13  9  1  0
A    1
 C1 
A    2
 N1 
A    3
 C2 
A    4
 C3 
A    5
 C4 
A    6
 C5 
A    7
 O1 
A    8
 C6 
A    9
 C7 
A   10
 C8 
A   11
 C9 
A   12
 C10
A   13
 C11
A   14
 N2 
A   15
 C12
A   16
 N3 
M  END
>  <ref_url>  (71) 
nan

>  <submitter_name>  (71) 
nan

>  <submitter_email>  (71) 
nan

>  <submitter_institution>  (71) 
nan

>  <generation_date>  (71) 
nan

>  <method>  (71) 
nan

>  <ddG>  (71) 
-6.547549

>  <score>  (71) 
-6.085052

>  <ref_mols>  (71) 
A71x1080a,A71x0556a

>  <original SMILES>  (71) 
Cn1nc(C(=O)NC2CCC2)c2c1CCC2

>  <ref_pdb>  (71) 
A71x0310a

>  <butcher #BAD>  (71) 
6

>  <butcher #GOOD>  (71) 
10

>  <butcher #protein clash>  (71) 
0

>  <butcher #solvent space>  (71) 
6

>  <butcher #pocket>  (71) 
10

>  <butcher #P1>  (71) 
10

>  <butcher #P2>  (71) 
0

>  <butcher #P1'>  (71) 
0

>  <butcher #P2'>  (71) 
0

>  <butcher #P3>  (71) 
0

>  <butcher #P4>  (71) 
0

>  <butcher #P5>  (71) 
0

>  <butcher #P6>  (71) 
0

$$$$
PTNWWWWTWFUTPU_UHFFF
     RDKit          3D

 15 16  0  0  0  0  0  0  0  0999 V2000
    6.2230   11.1690   26.2990 C   0  0  0  0  0  0  0  0  0  0  0  0
    5.9840   10.0300   27.0590 N   0  0  0  0  0  0  0  0  0  0  0  0
    4.8210    9.9250   27.9530 C   0  0  0  0  0  0  0  0  0  0  0  0
    5.0720    9.1990   29.2760 C   0  0  0  0  0  0  0  0  0  0  0  0
    4.2030    8.0830   28.9250 C   0  0  0  0  0  0  0  0  0  0  0  0
    3.7890    8.7360   27.6050 C   0  0  0  0  0  0  0  0  0  0  0  0
    5.5270   12.1680   26.4410 O   0  0  0  0  0  0  0  0  0  0  0  0
    7.3200   11.1580   25.3290 C   0  0  0  0  0  0  0  0  0  0  0  0
    8.0400   12.3100   24.5940 C   0  0  0  0  0  0  0  0  0  0  0  0
    7.7890   13.6440   24.7090 O   0  0  0  0  0  0  0  0  0  0  0  0
    6.8170   14.1710   23.7930 C   0  0  0  0  0  0  0  0  0  0  0  0
    8.9900   11.8510   23.7830 N   0  0  0  0  0  0  0  0  0  0  0  0
    8.9360   10.5100   23.9340 N   0  0  0  0  0  0  0  0  0  0  0  0
    9.8490    9.6860   23.1680 C   0  0  0  0  0  0  0  0  0  0  0  0
    7.9890   10.0650   24.8180 C   0  0  0  0  0  0  0  0  0  0  0  0
  1  2  1  0
  2  3  1  0
  3  4  1  0
  4  5  1  0
  5  6  1  0
  1  7  2  0
  1  8  1  0
  8  9  1  0
  9 10  1  0
 10 11  1  0
  9 12  2  0
 12 13  1  0
 13 14  1  0
 13 15  1  0
  6  3  1  0
  8 15  2  0
A    1
 C1 
A    2
 N1 
A    3
 C2 
A    4
 C3 
A    5
 C4 
A    6
 C5 
A    7
 O1 
A    8
 C6 
A    9
 C7 
A   10
 O2 
A   11
 C8 
A   12
 N2 
A   13
 N3 
A   14
 C9 
A   15
 C10
M  END
>  <ref_url>  (72) 
nan

>  <submitter_name>  (72) 
nan

>  <submitter_email>  (72) 
nan

>  <submitter_institution>  (72) 
nan

>  <generation_date>  (72) 
nan

>  <method>  (72) 
nan

>  <ddG>  (72) 
-7.950075

>  <score>  (72) 
-12.166553

>  <ref_mols>  (72) 
A71x1080a,A71x0556a

>  <original SMILES>  (72) 
COc1nn(C)cc1C(=O)NC1CCC1

>  <ref_pdb>  (72) 
A71x0310a

>  <butcher #BAD>  (72) 
6

>  <butcher #GOOD>  (72) 
9

>  <butcher #protein clash>  (72) 
0

>  <butcher #solvent space>  (72) 
6

>  <butcher #pocket>  (72) 
9

>  <butcher #P1>  (72) 
9

>  <butcher #P2>  (72) 
0

>  <butcher #P1'>  (72) 
0

>  <butcher #P2'>  (72) 
0

>  <butcher #P3>  (72) 
0

>  <butcher #P4>  (72) 
0

>  <butcher #P5>  (72) 
0

>  <butcher #P6>  (72) 
0

$$$$
WLGOOUPWJPCFBN_UHFFF
     RDKit          3D

 16 16  0  0  0  0  0  0  0  0999 V2000
    6.0260    9.9610   26.9290 O   0  0  0  0  0  0  0  0  0  0  0  0
    6.2570   11.2390   26.5180 C   0  0  0  0  0  0  0  0  0  0  0  0
    5.7570   12.2060   27.0880 O   0  0  0  0  0  0  0  0  0  0  0  0
    7.1700   11.3720   25.2850 C   0  0  2  0  0  0  0  0  0  0  0  0
    8.0790   10.2550   24.9750 N   0  0  0  0  0  0  0  0  0  0  0  0
    9.0590   10.5340   24.0370 C   0  0  0  0  0  0  0  0  0  0  0  0
    9.6240    9.4140   23.1900 C   0  0  0  0  0  0  0  0  0  0  0  0
    9.4690   11.6690   23.8730 O   0  0  0  0  0  0  0  0  0  0  0  0
    7.9570   12.6460   25.4050 C   0  0  0  0  0  0  0  0  0  0  0  0
    7.5770   13.7250   24.3910 C   0  0  0  0  0  0  0  0  0  0  0  0
    8.5780   13.5770   22.8910 S   0  0  0  0  0  0  0  0  0  0  0  0
    7.3470   14.1950   21.7500 C   0  0  0  0  0  0  0  0  0  0  0  0
    4.8630    9.8950   27.7890 C   0  0  0  0  0  0  0  0  0  0  0  0
    5.1810    9.2120   29.1170 C   0  0  0  0  0  0  0  0  0  0  0  0
    4.2110    8.1320   28.8700 C   0  0  0  0  0  0  0  0  0  0  0  0
    3.7460    8.7450   27.5610 C   0  0  0  0  0  0  0  0  0  0  0  0
  1  2  1  0
  2  3  2  0
  2  4  1  0
  4  5  1  0
  5  6  1  0
  6  7  1  0
  6  8  2  0
  4  9  1  1
  9 10  1  0
 10 11  1  0
 11 12  1  0
  1 13  1  0
 13 14  1  0
 14 15  1  0
 15 16  1  0
 16 13  1  0
A    1
 O1 
A    2
 C1 
A    3
 O2 
A    4
 C2 
A    5
 N1 
A    6
 C3 
A    7
 C4 
A    8
 O3 
A    9
 C5 
A   10
 C6 
A   11
 S1 
A   12
 C7 
A   13
 C8 
A   14
 C9 
A   15
 C10
A   16
 C11
M  END
>  <ref_url>  (73) 
nan

>  <submitter_name>  (73) 
nan

>  <submitter_email>  (73) 
nan

>  <submitter_institution>  (73) 
nan

>  <generation_date>  (73) 
nan

>  <method>  (73) 
nan

>  <ddG>  (73) 
-5.331005

>  <score>  (73) 
9.154385

>  <ref_mols>  (73) 
A71x1080a,A71x0556a

>  <original SMILES>  (73) 
CSCCC(NC(C)=O)C(=O)OC1CCC1

>  <ref_pdb>  (73) 
A71x0310a

>  <butcher #BAD>  (73) 
6

>  <butcher #GOOD>  (73) 
10

>  <butcher #protein clash>  (73) 
0

>  <butcher #solvent space>  (73) 
6

>  <butcher #pocket>  (73) 
10

>  <butcher #P1>  (73) 
10

>  <butcher #P2>  (73) 
0

>  <butcher #P1'>  (73) 
0

>  <butcher #P2'>  (73) 
0

>  <butcher #P3>  (73) 
0

>  <butcher #P4>  (73) 
0

>  <butcher #P5>  (73) 
0

>  <butcher #P6>  (73) 
0

$$$$
HSRUSAREZHLKAU_UHFFF
     RDKit          3D

 16 18  0  0  0  0  0  0  0  0999 V2000
    6.3370   11.1070   26.2630 C   0  0  0  0  0  0  0  0  0  0  0  0
    5.9040    9.9330   27.0010 N   0  0  0  0  0  0  0  0  0  0  0  0
    4.8230    9.9390   27.8630 C   0  0  0  0  0  0  0  0  0  0  0  0
    5.1700    9.4440   29.2380 C   0  0  0  0  0  0  0  0  0  0  0  0
    4.2420    8.3080   29.0000 C   0  0  0  0  0  0  0  0  0  0  0  0
    3.7810    8.7990   27.5950 C   0  0  0  0  0  0  0  0  0  0  0  0
    5.7910   12.4260   26.3250 O   0  0  0  0  0  0  0  0  0  0  0  0
    7.5180   11.0070   25.2800 C   0  0  0  0  0  0  0  0  0  0  0  0
    8.2970   12.2500   24.8520 C   0  0  0  0  0  0  0  0  0  0  0  0
    9.3110   11.6250   23.9230 C   0  0  0  0  0  0  0  0  0  0  0  0
   10.4280   12.3010   23.1400 C   0  0  0  0  0  0  0  0  0  0  0  0
    9.9410   13.5260   22.7480 C   0  0  0  0  0  0  0  0  0  0  0  0
   11.2310   13.5900   23.6650 C   0  0  0  0  0  0  0  0  0  0  0  0
    9.1240   10.2820   23.8420 N   0  0  0  0  0  0  0  0  0  0  0  0
    9.9200    9.3600   23.0180 C   0  0  0  0  0  0  0  0  0  0  0  0
    8.0910    9.8220   24.6150 N   0  0  0  0  0  0  0  0  0  0  0  0
  1  2  1  0
  2  3  1  0
  3  4  1  0
  4  5  1  0
  5  6  1  0
  1  7  2  0
  1  8  1  0
  8  9  1  0
  9 10  2  0
 10 11  1  0
 11 12  1  0
 12 13  1  0
 10 14  1  0
 14 15  1  0
 14 16  1  0
  6  3  1  0
  8 16  2  0
 13 11  1  0
A    1
 C1 
A    2
 N1 
A    3
 C2 
A    4
 C3 
A    5
 C4 
A    6
 C5 
A    7
 O1 
A    8
 C6 
A    9
 C7 
A   10
 C8 
A   11
 C9 
A   12
 C10
A   13
 C11
A   14
 N2 
A   15
 C12
A   16
 N3 
M  END
>  <ref_url>  (74) 
nan

>  <submitter_name>  (74) 
nan

>  <submitter_email>  (74) 
nan

>  <submitter_institution>  (74) 
nan

>  <generation_date>  (74) 
nan

>  <method>  (74) 
nan

>  <ddG>  (74) 
-7.506299

>  <score>  (74) 
-9.34337

>  <ref_mols>  (74) 
A71x0556a,A71x0884a

>  <original SMILES>  (74) 
Cn1nc(C(=O)NC2CCC2)cc1C1CC1

>  <ref_pdb>  (74) 
A71x0310a

>  <butcher #BAD>  (74) 
5

>  <butcher #GOOD>  (74) 
11

>  <butcher #protein clash>  (74) 
0

>  <butcher #solvent space>  (74) 
5

>  <butcher #pocket>  (74) 
11

>  <butcher #P1>  (74) 
11

>  <butcher #P2>  (74) 
0

>  <butcher #P1'>  (74) 
0

>  <butcher #P2'>  (74) 
0

>  <butcher #P3>  (74) 
0

>  <butcher #P4>  (74) 
0

>  <butcher #P5>  (74) 
0

>  <butcher #P6>  (74) 
0

$$$$
WQGYRTYVMJZDAI_UHFFF
     RDKit          3D

 15 16  0  0  0  0  0  0  0  0999 V2000
    6.1770   11.2460   26.2830 C   0  0  0  0  0  0  0  0  0  0  0  0
    5.9130   10.0030   27.0170 N   0  0  0  0  0  0  0  0  0  0  0  0
    4.8510    9.9550   27.9320 C   0  0  0  0  0  0  0  0  0  0  0  0
    5.1480    9.1930   29.2110 C   0  0  0  0  0  0  0  0  0  0  0  0
    4.2150    8.1190   28.8530 C   0  0  0  0  0  0  0  0  0  0  0  0
    3.7540    8.8180   27.6140 C   0  0  0  0  0  0  0  0  0  0  0  0
    5.4640   12.2260   26.4710 O   0  0  0  0  0  0  0  0  0  0  0  0
    7.3110   11.3010   25.3160 C   0  0  0  0  0  0  0  0  0  0  0  0
    8.0670   10.2500   24.9430 N   0  0  0  0  0  0  0  0  0  0  0  0
    8.9550   10.7580   24.0610 N   0  0  0  0  0  0  0  0  0  0  0  0
    8.8110   12.1060   23.8380 C   0  0  0  0  0  0  0  0  0  0  0  0
    9.5950   12.7860   22.9860 O   0  0  0  0  0  0  0  0  0  0  0  0
   11.0210   12.7090   23.0500 C   0  0  0  0  0  0  0  0  0  0  0  0
   11.6030   13.9180   23.7720 C   0  0  0  0  0  0  0  0  0  0  0  0
    7.7590   12.4710   24.6390 C   0  0  0  0  0  0  0  0  0  0  0  0
  1  2  1  0
  2  3  1  0
  3  4  1  0
  4  5  1  0
  5  6  1  0
  1  7  2  0
  1  8  1  0
  8  9  2  0
  9 10  1  0
 10 11  1  0
 11 12  1  0
 12 13  1  0
 13 14  1  0
 11 15  2  0
  6  3  1  0
 15  8  1  0
A    1
 C1 
A    2
 N1 
A    3
 C2 
A    4
 C3 
A    5
 C4 
A    6
 C5 
A    7
 O1 
A    8
 C6 
A    9
 N2 
A   10
 N3 
A   11
 C7 
A   12
 O2 
A   13
 C8 
A   14
 C9 
A   15
 C10
M  END
>  <ref_url>  (75) 
nan

>  <submitter_name>  (75) 
nan

>  <submitter_email>  (75) 
nan

>  <submitter_institution>  (75) 
nan

>  <generation_date>  (75) 
nan

>  <method>  (75) 
nan

>  <ddG>  (75) 
-5.31634

>  <score>  (75) 
5.330067

>  <ref_mols>  (75) 
A71x0556a,A71x0884a

>  <original SMILES>  (75) 
CCOc1cc(C(=O)NC2CCC2)n[nH]1

>  <ref_pdb>  (75) 
A71x0310a

>  <butcher #BAD>  (75) 
6

>  <butcher #GOOD>  (75) 
9

>  <butcher #protein clash>  (75) 
0

>  <butcher #solvent space>  (75) 
6

>  <butcher #pocket>  (75) 
9

>  <butcher #P1>  (75) 
9

>  <butcher #P2>  (75) 
0

>  <butcher #P1'>  (75) 
0

>  <butcher #P2'>  (75) 
0

>  <butcher #P3>  (75) 
0

>  <butcher #P4>  (75) 
0

>  <butcher #P5>  (75) 
0

>  <butcher #P6>  (75) 
0

$$$$
YSZSULBTENTRCE_UHFFF
     RDKit          3D

 15 16  0  0  0  0  0  0  0  0999 V2000
    6.1140   10.9220   26.3630 C   0  0  0  0  0  0  0  0  0  0  0  0
    5.9670    9.7870   27.1340 N   0  0  0  0  0  0  0  0  0  0  0  0
    4.6900    9.3130   27.6320 C   0  0  0  0  0  0  0  0  0  0  0  0
    4.8770    8.2980   28.7230 C   0  0  0  0  0  0  0  0  0  0  0  0
    3.2280    8.8210   29.2980 S   0  0  0  0  0  0  0  0  0  0  0  0
    3.8220   10.3050   28.3680 C   0  0  0  0  0  0  0  0  0  0  0  0
    5.2640   12.0650   26.3470 O   0  0  0  0  0  0  0  0  0  0  0  0
    7.3010   11.0540   25.3910 C   0  0  0  0  0  0  0  0  0  0  0  0
    7.9510    9.8860   24.7950 N   0  0  0  0  0  0  0  0  0  0  0  0
    8.9150   10.4030   24.0140 N   0  0  0  0  0  0  0  0  0  0  0  0
    9.7800    9.5400   23.2270 C   0  0  0  0  0  0  0  0  0  0  0  0
    8.9780   11.7640   24.0400 C   0  0  0  0  0  0  0  0  0  0  0  0
   10.0150   12.5150   23.2250 C   0  0  0  0  0  0  0  0  0  0  0  0
    7.9750   12.1940   24.8890 C   0  0  0  0  0  0  0  0  0  0  0  0
    7.5940   13.9870   25.2830 Br  0  0  0  0  0  0  0  0  0  0  0  0
  1  2  1  0
  2  3  1  0
  3  4  1  0
  4  5  1  0
  5  6  1  0
  1  7  2  0
  1  8  1  0
  8  9  2  0
  9 10  1  0
 10 11  1  0
 10 12  1  0
 12 13  1  0
 12 14  2  0
 14 15  1  0
  6  3  1  0
 14  8  1  0
A    1
 C1 
A    2
 N1 
A    3
 C2 
A    4
 C3 
A    5
 S1 
A    6
 C4 
A    7
 O1 
A    8
 C5 
A    9
 N2 
A   10
 N3 
A   11
 C6 
A   12
 C7 
A   13
 C8 
A   14
 C9 
A   15
BR1 
M  END
>  <ref_url>  (76) 
nan

>  <submitter_name>  (76) 
nan

>  <submitter_email>  (76) 
nan

>  <submitter_institution>  (76) 
nan

>  <generation_date>  (76) 
nan

>  <method>  (76) 
nan

>  <ddG>  (76) 
-7.877414

>  <score>  (76) 
-7.029058

>  <ref_mols>  (76) 
A71x0556a,A71x0884a

>  <original SMILES>  (76) 
Cc1c(Br)c(C(=O)NC2CSC2)nn1C

>  <ref_pdb>  (76) 
A71x0310a

>  <butcher #BAD>  (76) 
6

>  <butcher #GOOD>  (76) 
9

>  <butcher #protein clash>  (76) 
0

>  <butcher #solvent space>  (76) 
6

>  <butcher #pocket>  (76) 
9

>  <butcher #P1>  (76) 
9

>  <butcher #P2>  (76) 
0

>  <butcher #P1'>  (76) 
0

>  <butcher #P2'>  (76) 
0

>  <butcher #P3>  (76) 
0

>  <butcher #P4>  (76) 
0

>  <butcher #P5>  (76) 
0

>  <butcher #P6>  (76) 
0

$$$$
PIKFINSVBMSCNN_UHFFF
     RDKit          3D

 15 16  0  0  0  0  0  0  0  0999 V2000
    5.7670   12.1880   26.3400 O   0  0  0  0  0  0  0  0  0  0  0  0
    6.3540   10.9550   26.2580 C   0  0  0  0  0  0  0  0  0  0  0  0
    6.0030    9.9880   26.9120 O   0  0  0  0  0  0  0  0  0  0  0  0
    7.5030   10.9960   25.2510 C   0  0  0  0  0  0  0  0  0  0  0  0
    8.0950    9.8920   24.7300 N   0  0  0  0  0  0  0  0  0  0  0  0
    9.0460   10.3650   23.8980 N   0  0  0  0  0  0  0  0  0  0  0  0
    9.8920    9.4700   23.1320 C   0  0  0  0  0  0  0  0  0  0  0  0
    9.1060   11.7190   23.8640 C   0  0  0  0  0  0  0  0  0  0  0  0
   10.1070   12.4760   23.0130 C   0  0  0  0  0  0  0  0  0  0  0  0
    8.1210   12.1410   24.7100 C   0  0  0  0  0  0  0  0  0  0  0  0
    7.6860   13.9180   25.0730 Br  0  0  0  0  0  0  0  0  0  0  0  0
    6.1390   12.9650   27.4940 C   0  0  0  0  0  0  0  0  0  0  0  0
    5.8130   12.3610   28.8600 C   0  0  0  0  0  0  0  0  0  0  0  0
    4.8900   13.4450   29.2080 C   0  0  0  0  0  0  0  0  0  0  0  0
    5.1240   14.1510   27.8690 C   0  0  0  0  0  0  0  0  0  0  0  0
  1  2  1  0
  2  3  2  0
  2  4  1  0
  4  5  2  0
  5  6  1  0
  6  7  1  0
  6  8  1  0
  8  9  1  0
  8 10  2  0
 10 11  1  0
  1 12  1  0
 12 13  1  0
 13 14  1  0
 14 15  1  0
 10  4  1  0
 15 12  1  0
A    1
 O1 
A    2
 C1 
A    3
 O2 
A    4
 C2 
A    5
 N1 
A    6
 N2 
A    7
 C3 
A    8
 C4 
A    9
 C5 
A   10
 C6 
A   11
BR1 
A   12
 C7 
A   13
 C8 
A   14
 C9 
A   15
 C10
M  END
>  <ref_url>  (77) 
nan

>  <submitter_name>  (77) 
nan

>  <submitter_email>  (77) 
nan

>  <submitter_institution>  (77) 
nan

>  <generation_date>  (77) 
nan

>  <method>  (77) 
nan

>  <ddG>  (77) 
-5.980341

>  <score>  (77) 
-5.227232

>  <ref_mols>  (77) 
A71x0556a,A71x0884a

>  <original SMILES>  (77) 
Cc1c(Br)c(C(=O)OC2CCC2)nn1C

>  <ref_pdb>  (77) 
A71x0310a

>  <butcher #BAD>  (77) 
5

>  <butcher #GOOD>  (77) 
10

>  <butcher #protein clash>  (77) 
0

>  <butcher #solvent space>  (77) 
5

>  <butcher #pocket>  (77) 
10

>  <butcher #P1>  (77) 
10

>  <butcher #P2>  (77) 
0

>  <butcher #P1'>  (77) 
0

>  <butcher #P2'>  (77) 
0

>  <butcher #P3>  (77) 
0

>  <butcher #P4>  (77) 
0

>  <butcher #P5>  (77) 
0

>  <butcher #P6>  (77) 
0

$$$$
ZQOFBFOFOWUVLD_UHFFF
     RDKit          3D

 17 18  0  0  0  0  0  0  0  0999 V2000
    6.0290   11.0850   26.3290 C   0  0  0  0  0  0  0  0  0  0  0  0
    5.8560    9.9480   27.0810 N   0  0  0  0  0  0  0  0  0  0  0  0
    4.7190    9.8770   27.9760 C   0  0  0  0  0  0  0  0  0  0  0  0
    4.9810    9.1290   29.2750 C   0  0  0  0  0  0  0  0  0  0  0  0
    3.9820    8.1040   28.9570 C   0  0  0  0  0  0  0  0  0  0  0  0
    3.5700    8.7860   27.6580 C   0  0  0  0  0  0  0  0  0  0  0  0
    5.1330   12.1890   26.3680 O   0  0  0  0  0  0  0  0  0  0  0  0
    7.2180   11.1100   25.4580 C   0  0  0  0  0  0  0  0  0  0  0  0
    8.0330   12.3310   25.1070 C   0  0  0  0  0  0  0  0  0  0  0  0
    9.0830   11.8020   24.2240 C   0  0  0  0  0  0  0  0  0  0  0  0
   10.1990   12.5820   23.5870 C   0  0  0  0  0  0  0  0  0  0  0  0
   10.7730   13.4190   24.4750 F   0  0  0  0  0  0  0  0  0  0  0  0
   11.1410   11.7290   23.2000 F   0  0  0  0  0  0  0  0  0  0  0  0
    9.8520   13.2970   22.5030 F   0  0  0  0  0  0  0  0  0  0  0  0
    8.8870   10.4750   24.0820 N   0  0  0  0  0  0  0  0  0  0  0  0
    9.7030    9.5620   23.2600 C   0  0  0  0  0  0  0  0  0  0  0  0
    7.7920   10.0300   24.8110 N   0  0  0  0  0  0  0  0  0  0  0  0
  1  2  1  0
  2  3  1  0
  3  4  1  0
  4  5  1  0
  5  6  1  0
  1  7  2  0
  1  8  1  0
  8  9  1  0
  9 10  2  0
 10 11  1  0
 11 12  1  0
 11 13  1  0
 11 14  1  0
 10 15  1  0
 15 16  1  0
 15 17  1  0
  6  3  1  0
  8 17  2  0
A    1
 C1 
A    2
 N1 
A    3
 C2 
A    4
 C3 
A    5
 C4 
A    6
 C5 
A    7
 O1 
A    8
 C6 
A    9
 C7 
A   10
 C8 
A   11
 C9 
A   12
 F1 
A   13
 F2 
A   14
 F3 
A   15
 N2 
A   16
 C10
A   17
 N3 
M  END
>  <ref_url>  (78) 
nan

>  <submitter_name>  (78) 
nan

>  <submitter_email>  (78) 
nan

>  <submitter_institution>  (78) 
nan

>  <generation_date>  (78) 
nan

>  <method>  (78) 
nan

>  <ddG>  (78) 
-5.413715

>  <score>  (78) 
-23.776179

>  <ref_mols>  (78) 
A71x0556a,A71x0884a

>  <original SMILES>  (78) 
Cn1nc(C(=O)NC2CCC2)cc1C(F)(F)F

>  <ref_pdb>  (78) 
A71x0310a

>  <butcher #BAD>  (78) 
6

>  <butcher #GOOD>  (78) 
11

>  <butcher #protein clash>  (78) 
0

>  <butcher #solvent space>  (78) 
6

>  <butcher #pocket>  (78) 
11

>  <butcher #P1>  (78) 
11

>  <butcher #P2>  (78) 
0

>  <butcher #P1'>  (78) 
0

>  <butcher #P2'>  (78) 
0

>  <butcher #P3>  (78) 
0

>  <butcher #P4>  (78) 
0

>  <butcher #P5>  (78) 
0

>  <butcher #P6>  (78) 
0

$$$$
AWCMEDRWRMRPCR_UHFFF
     RDKit          3D

 16 17  0  0  0  0  0  0  0  0999 V2000
    5.8030   11.0360   26.5450 C   0  0  0  0  0  0  0  0  0  0  0  0
    5.8630    9.8260   27.3480 N   0  0  0  0  0  0  0  0  0  0  0  0
    4.6880    9.7960   28.2160 C   0  0  0  0  0  0  0  0  0  0  0  0
    4.8860    9.0100   29.4530 C   0  0  0  0  0  0  0  0  0  0  0  0
    3.8430    8.0440   28.9970 C   0  0  0  0  0  0  0  0  0  0  0  0
    3.5640    8.8630   27.6930 C   0  0  0  0  0  0  0  0  0  0  0  0
    4.9140   11.8650   26.6910 O   0  0  0  0  0  0  0  0  0  0  0  0
    6.9210   11.2200   25.5160 C   0  0  0  0  0  0  0  0  0  0  0  0
    7.7800   10.2620   25.1100 N   0  0  0  0  0  0  0  0  0  0  0  0
    8.5620   10.8940   24.2170 N   0  0  0  0  0  0  0  0  0  0  0  0
    9.6450   10.2460   23.5480 C   0  0  0  0  0  0  0  0  0  0  0  0
   10.3970   11.3940   22.9450 C   0  0  0  0  0  0  0  0  0  0  0  0
    9.5740    9.0580   22.6550 C   0  0  0  0  0  0  0  0  0  0  0  0
    8.2340   12.2070   24.0350 C   0  0  0  0  0  0  0  0  0  0  0  0
    8.9110   13.2250   23.0980 C   0  0  0  0  0  0  0  0  0  0  0  0
    7.1860   12.4310   24.8570 C   0  0  0  0  0  0  0  0  0  0  0  0
  1  2  1  0
  2  3  1  0
  3  4  1  0
  4  5  1  0
  5  6  1  0
  1  7  2  0
  1  8  1  0
  8  9  2  0
  9 10  1  0
 10 11  1  0
 11 12  1  0
 11 13  1  0
 10 14  1  0
 14 15  1  0
 14 16  2  0
  6  3  1  0
 16  8  1  0
A    1
 C1 
A    2
 N1 
A    3
 C2 
A    4
 C3 
A    5
 C4 
A    6
 C5 
A    7
 O1 
A    8
 C6 
A    9
 N2 
A   10
 N3 
A   11
 C7 
A   12
 C8 
A   13
 C9 
A   14
 C10
A   15
 C11
A   16
 C12
M  END
>  <ref_url>  (79) 
nan

>  <submitter_name>  (79) 
nan

>  <submitter_email>  (79) 
nan

>  <submitter_institution>  (79) 
nan

>  <generation_date>  (79) 
nan

>  <method>  (79) 
nan

>  <ddG>  (79) 
-4.8944

>  <score>  (79) 
137.330326

>  <ref_mols>  (79) 
A71x0556a,A71x0884a

>  <original SMILES>  (79) 
Cc1cc(C(=O)NC2CCC2)nn1C(C)C

>  <ref_pdb>  (79) 
A71x0310a

>  <butcher #BAD>  (79) 
7

>  <butcher #GOOD>  (79) 
9

>  <butcher #protein clash>  (79) 
1

>  <butcher #solvent space>  (79) 
6

>  <butcher #pocket>  (79) 
9

>  <butcher #P1>  (79) 
9

>  <butcher #P2>  (79) 
0

>  <butcher #P1'>  (79) 
0

>  <butcher #P2'>  (79) 
0

>  <butcher #P3>  (79) 
0

>  <butcher #P4>  (79) 
0

>  <butcher #P5>  (79) 
0

>  <butcher #P6>  (79) 
0

$$$$
BAYQCNGMYWWHAR_UHFFF
     RDKit          3D

 20 21  0  0  0  0  0  0  0  0999 V2000
    6.2210   11.4900   25.7240 C   0  0  0  0  0  0  0  0  0  0  0  0
    7.2500   11.3350   24.7580 N   0  0  0  0  0  0  0  0  0  0  0  0
    8.0420   12.3890   24.1070 C   0  0  0  0  0  0  0  0  0  0  0  0
    7.8090   13.5030   23.6850 O   0  0  0  0  0  0  0  0  0  0  0  0
    9.4740   11.8950   23.9760 C   0  0  2  0  0  0  0  0  0  0  0  0
   10.5290   12.5780   23.1800 N   0  0  0  0  0  0  0  0  0  0  0  0
   11.6180   13.0300   24.0450 C   0  0  0  0  0  0  0  0  0  0  0  0
   10.3040   13.6600   22.2670 C   0  0  0  0  0  0  0  0  0  0  0  0
   11.6550   14.0910   21.7270 C   0  0  0  0  0  0  0  0  0  0  0  0
   12.2860   15.1020   22.6550 C   0  0  0  0  0  0  0  0  0  0  0  0
   12.0610   16.4290   22.0320 C   0  0  0  0  0  0  0  0  0  0  0  0
    9.2350   10.4100   23.7700 C   0  0  0  0  0  0  0  0  0  0  0  0
    8.1000   10.1800   24.7640 C   0  0  0  0  0  0  0  0  0  0  0  0
    5.8810   10.1990   26.5690 C   0  0  0  0  0  0  0  0  0  0  0  0
    4.8920   10.2360   27.7550 C   0  0  1  0  0  0  0  0  0  0  0  0
    3.8230    9.1090   27.7180 C   0  0  0  0  0  0  0  0  0  0  0  0
    4.0250    8.1980   28.9200 C   0  0  0  0  0  0  0  0  0  0  0  0
    4.7190    9.0270   29.8450 O   0  0  0  0  0  0  0  0  0  0  0  0
    5.6010    9.8430   29.0590 C   0  0  0  0  0  0  0  0  0  0  0  0
    5.5900   12.5160   25.9250 O   0  0  0  0  0  0  0  0  0  0  0  0
  1  2  1  0
  2  3  1  0
  3  4  2  0
  3  5  1  0
  5  6  1  6
  6  7  1  0
  6  8  1  0
  8  9  1  0
  9 10  1  0
 10 11  1  0
  5 12  1  0
 12 13  1  0
  1 14  1  0
 15 14  1  6
 15 16  1  0
 16 17  1  0
 17 18  1  0
 18 19  1  0
  1 20  2  0
 13  2  1  0
 19 15  1  0
A    1
 C1 
A    2
 N1 
A    3
 C2 
A    4
 O1 
A    5
 C3 
A    6
 N2 
A    7
 C4 
A    8
 C5 
A    9
 C6 
A   10
 C7 
A   11
 C8 
A   12
 C9 
A   13
 C10
A   14
 C11
A   15
 C12
A   16
 C13
A   17
 C14
A   18
 O2 
A   19
 C15
A   20
 O3 
M  END
>  <ref_url>  (80) 
nan

>  <submitter_name>  (80) 
nan

>  <submitter_email>  (80) 
nan

>  <submitter_institution>  (80) 
nan

>  <generation_date>  (80) 
nan

>  <method>  (80) 
nan

>  <ddG>  (80) 
-4.759259

>  <score>  (80) 
1.761866

>  <ref_mols>  (80) 
A71x0375b,A71x0556a

>  <original SMILES>  (80) 
CCCCN(C)C1CCN(C(=O)CC2CCOC2)C1=O

>  <ref_pdb>  (80) 
A71x0310a

>  <butcher #BAD>  (80) 
5

>  <butcher #GOOD>  (80) 
15

>  <butcher #protein clash>  (80) 
0

>  <butcher #solvent space>  (80) 
5

>  <butcher #pocket>  (80) 
15

>  <butcher #P1>  (80) 
13

>  <butcher #P2>  (80) 
1

>  <butcher #P1'>  (80) 
1

>  <butcher #P2'>  (80) 
0

>  <butcher #P3>  (80) 
0

>  <butcher #P4>  (80) 
0

>  <butcher #P5>  (80) 
0

>  <butcher #P6>  (80) 
0

$$$$
JWTNFTFWODXLPK_UHFFF
     RDKit          3D

 14 15  0  0  0  0  0  0  0  0999 V2000
    6.6170   12.2890   27.0960 O   0  0  0  0  0  0  0  0  0  0  0  0
    6.4650   11.1950   26.2820 C   0  0  0  0  0  0  0  0  0  0  0  0
    5.5590   10.3820   26.4200 O   0  0  0  0  0  0  0  0  0  0  0  0
    7.5910   11.0920   25.2240 C   0  0  0  0  0  0  0  0  0  0  0  0
    8.1880    9.9420   24.7800 N   0  0  0  0  0  0  0  0  0  0  0  0
    9.1330   10.2920   23.8590 N   0  0  0  0  0  0  0  0  0  0  0  0
    9.9330    9.2750   23.2190 C   0  0  0  0  0  0  0  0  0  0  0  0
    9.1850   11.6260   23.6710 C   0  0  0  0  0  0  0  0  0  0  0  0
    8.1790   12.3140   24.5410 C   0  0  0  0  0  0  0  0  0  0  0  0
    7.8700   13.9720   24.6560 Cl  0  0  0  0  0  0  0  0  0  0  0  0
    6.0840   13.5750   26.7240 C   0  0  0  0  0  0  0  0  0  0  0  0
    4.9920   14.0730   27.6630 C   0  0  0  0  0  0  0  0  0  0  0  0
    3.9750   14.1730   26.5930 C   0  0  0  0  0  0  0  0  0  0  0  0
    4.9720   13.6080   25.5700 C   0  0  0  0  0  0  0  0  0  0  0  0
  1  2  1  0
  2  3  2  0
  2  4  1  0
  4  5  2  0
  5  6  1  0
  6  7  1  0
  6  8  1  0
  8  9  2  0
  9 10  1  0
  1 11  1  0
 11 12  1  0
 12 13  1  0
 13 14  1  0
  9  4  1  0
 14 11  1  0
A    1
 O1 
A    2
 C1 
A    3
 O2 
A    4
 C2 
A    5
 N1 
A    6
 N2 
A    7
 C3 
A    8
 C4 
A    9
 C5 
A   10
CL1 
A   11
 C6 
A   12
 C7 
A   13
 C8 
A   14
 C9 
M  END
>  <ref_url>  (81) 
nan

>  <submitter_name>  (81) 
nan

>  <submitter_email>  (81) 
nan

>  <submitter_institution>  (81) 
nan

>  <generation_date>  (81) 
nan

>  <method>  (81) 
nan

>  <ddG>  (81) 
-5.069115

>  <score>  (81) 
-5.170269

>  <ref_mols>  (81) 
A71x0556a,A71x0450a

>  <original SMILES>  (81) 
Cn1cc(Cl)c(C(=O)OC2CCC2)n1

>  <ref_pdb>  (81) 
A71x0310a

>  <butcher #BAD>  (81) 
3

>  <butcher #GOOD>  (81) 
11

>  <butcher #protein clash>  (81) 
0

>  <butcher #solvent space>  (81) 
3

>  <butcher #pocket>  (81) 
11

>  <butcher #P1>  (81) 
9

>  <butcher #P2>  (81) 
0

>  <butcher #P1'>  (81) 
0

>  <butcher #P2'>  (81) 
0

>  <butcher #P3>  (81) 
2

>  <butcher #P4>  (81) 
0

>  <butcher #P5>  (81) 
0

>  <butcher #P6>  (81) 
0

$$$$
HZIJYPGOSMKDOH_UHFFF
     RDKit          3D

 14 15  0  0  0  0  0  0  0  0999 V2000
    5.3550   11.9630   26.2140 O   0  0  0  0  0  0  0  0  0  0  0  0
    6.3130   11.0170   26.3950 C   0  0  0  0  0  0  0  0  0  0  0  0
    6.2740   10.1750   27.2820 O   0  0  0  0  0  0  0  0  0  0  0  0
    7.4510   11.1080   25.3590 C   0  0  0  0  0  0  0  0  0  0  0  0
    8.1540   12.3420   24.7890 C   0  0  0  0  0  0  0  0  0  0  0  0
    7.9500   14.0040   25.0740 Cl  0  0  0  0  0  0  0  0  0  0  0  0
    9.1780   11.8610   23.8300 N   0  0  0  0  0  0  0  0  0  0  0  0
    9.1000   10.5310   23.8210 C   0  0  0  0  0  0  0  0  0  0  0  0
    9.8960    9.5270   23.0280 C   0  0  0  0  0  0  0  0  0  0  0  0
    8.0970    9.9790   24.7050 N   0  0  0  0  0  0  0  0  0  0  0  0
    5.7000   13.3160   26.5550 C   0  0  0  0  0  0  0  0  0  0  0  0
    4.7840   14.0230   27.5650 C   0  0  0  0  0  0  0  0  0  0  0  0
    4.3260   14.9770   26.5450 C   0  0  0  0  0  0  0  0  0  0  0  0
    5.2120   14.3800   25.4570 C   0  0  0  0  0  0  0  0  0  0  0  0
  1  2  1  0
  2  3  2  0
  2  4  1  0
  4  5  2  0
  5  6  1  0
  5  7  1  0
  7  8  2  0
  8  9  1  0
  8 10  1  0
  1 11  1  0
 11 12  1  0
 12 13  1  0
 13 14  1  0
 10  4  1  0
 14 11  1  0
A    1
 O1 
A    2
 C1 
A    3
 O2 
A    4
 C2 
A    5
 C3 
A    6
CL1 
A    7
 N1 
A    8
 C4 
A    9
 C5 
A   10
 N2 
A   11
 C6 
A   12
 C7 
A   13
 C8 
A   14
 C9 
M  END
>  <ref_url>  (82) 
nan

>  <submitter_name>  (82) 
nan

>  <submitter_email>  (82) 
nan

>  <submitter_institution>  (82) 
nan

>  <generation_date>  (82) 
nan

>  <method>  (82) 
nan

>  <ddG>  (82) 
-4.035508

>  <score>  (82) 
-5.78263

>  <ref_mols>  (82) 
A71x0556a,A71x0450a

>  <original SMILES>  (82) 
Cc1nc(Cl)c(C(=O)OC2CCC2)[nH]1

>  <ref_pdb>  (82) 
A71x0310a

>  <butcher #BAD>  (82) 
4

>  <butcher #GOOD>  (82) 
10

>  <butcher #protein clash>  (82) 
0

>  <butcher #solvent space>  (82) 
4

>  <butcher #pocket>  (82) 
10

>  <butcher #P1>  (82) 
8

>  <butcher #P2>  (82) 
0

>  <butcher #P1'>  (82) 
0

>  <butcher #P2'>  (82) 
0

>  <butcher #P3>  (82) 
2

>  <butcher #P4>  (82) 
0

>  <butcher #P5>  (82) 
0

>  <butcher #P6>  (82) 
0

$$$$
FUMZEQODHXNVQE_UHFFF
     RDKit          3D

 13 13  0  0  0  0  0  0  0  0999 V2000
   10.1650   13.5150   22.4200 C   0  0  0  0  0  0  0  0  0  0  0  0
    9.3130   14.3520   21.6920 N   0  0  0  0  0  0  0  0  0  0  0  0
    9.8920   14.9920   20.4940 C   0  0  0  0  0  0  0  0  0  0  0  0
   11.3920   13.6290   22.3710 O   0  0  0  0  0  0  0  0  0  0  0  0
    9.4300   12.5000   23.2550 C   0  0  0  0  0  0  0  0  0  0  0  0
    9.9250   11.0690   23.0330 C   0  0  0  0  0  0  0  0  0  0  0  0
    9.1210   10.0730   23.7940 C   0  0  0  0  0  0  0  0  0  0  0  0
    8.5550   10.7650   25.0160 C   0  0  0  0  0  0  0  0  0  0  0  0
    7.2510   11.4610   25.0130 C   0  0  1  0  0  0  0  0  0  0  0  0
    6.1710   10.3780   25.9900 S   0  0  0  0  0  0  0  0  0  0  0  0
    5.0080   11.8140   26.8400 S   0  0  0  0  0  0  0  0  0  0  0  0
    5.7540   13.1980   25.9680 C   0  0  0  0  0  0  0  0  0  0  0  0
    7.2160   12.8220   25.7030 C   0  0  0  0  0  0  0  0  0  0  0  0
  1  2  1  0
  2  3  1  0
  1  4  2  0
  1  5  1  0
  5  6  1  0
  6  7  1  0
  7  8  1  0
  9  8  1  1
  9 10  1  0
 10 11  1  0
 11 12  1  0
 12 13  1  0
 13  9  1  0
A    1
 C1 
A    2
 N1 
A    3
 C2 
A    4
 O1 
A    5
 C3 
A    6
 C4 
A    7
 C5 
A    8
 C6 
A    9
 C7 
A   10
 S1 
A   11
 S2 
A   12
 C8 
A   13
 C9 
M  END
>  <ref_url>  (83) 
nan

>  <submitter_name>  (83) 
nan

>  <submitter_email>  (83) 
nan

>  <submitter_institution>  (83) 
nan

>  <generation_date>  (83) 
nan

>  <method>  (83) 
nan

>  <ddG>  (83) 
-2.706322

>  <score>  (83) 
8.060048

>  <ref_mols>  (83) 
A71x0566a,A71x0446a

>  <original SMILES>  (83) 
CNC(=O)CCCCC1CCSS1

>  <ref_pdb>  (83) 
A71x0310a

>  <butcher #BAD>  (83) 
2

>  <butcher #GOOD>  (83) 
11

>  <butcher #protein clash>  (83) 
0

>  <butcher #solvent space>  (83) 
2

>  <butcher #pocket>  (83) 
11

>  <butcher #P1>  (83) 
10

>  <butcher #P2>  (83) 
1

>  <butcher #P1'>  (83) 
0

>  <butcher #P2'>  (83) 
0

>  <butcher #P3>  (83) 
0

>  <butcher #P4>  (83) 
0

>  <butcher #P5>  (83) 
0

>  <butcher #P6>  (83) 
0

$$$$
IJKVMQHRJHFECJ_UHFFF
     RDKit          3D

 14 14  0  0  0  0  0  0  0  0999 V2000
    6.1510   11.8500   26.4430 S   0  0  0  0  0  0  0  0  0  0  0  0
    7.3650   12.9970   25.7170 C   0  0  0  0  0  0  0  0  0  0  0  0
    8.3730   12.3130   24.8250 C   0  0  1  0  0  0  0  0  0  0  0  0
    8.1410   10.8230   24.7300 C   0  0  0  0  0  0  0  0  0  0  0  0
    9.1210   10.1540   23.7840 C   0  0  0  0  0  0  0  0  0  0  0  0
   10.0390   11.1290   23.0210 C   0  0  0  0  0  0  0  0  0  0  0  0
    9.7330   12.5710   23.0030 N   0  0  0  0  0  0  0  0  0  0  0  0
   10.8170   13.4690   23.4170 C   0  0  0  0  0  0  0  0  0  0  0  0
   12.1430   13.5340   22.6780 C   0  0  0  0  0  0  0  0  0  0  0  0
   10.7680   14.2510   24.3630 O   0  0  0  0  0  0  0  0  0  0  0  0
    8.5040   12.9530   23.4690 C   0  0  0  0  0  0  0  0  0  0  0  0
    4.8610   13.0670   26.8780 C   0  0  0  0  0  0  0  0  0  0  0  0
    4.7030   14.1400   25.7840 C   0  0  0  0  0  0  0  0  0  0  0  0
    3.6210   13.7970   24.9230 O   0  0  0  0  0  0  0  0  0  0  0  0
  1  2  1  0
  3  2  1  6
  3  4  1  0
  4  5  1  0
  5  6  1  0
  6  7  1  0
  7  8  1  0
  8  9  1  0
  8 10  2  0
  7 11  1  0
  1 12  1  0
 12 13  1  0
 13 14  1  0
 11  3  1  0
A    1
 S1 
A    2
 C1 
A    3
 C2 
A    4
 C3 
A    5
 C4 
A    6
 C5 
A    7
 N1 
A    8
 C6 
A    9
 C7 
A   10
 O1 
A   11
 C8 
A   12
 C9 
A   13
 C10
A   14
 O2 
M  END
>  <ref_url>  (84) 
nan

>  <submitter_name>  (84) 
nan

>  <submitter_email>  (84) 
nan

>  <submitter_institution>  (84) 
nan

>  <generation_date>  (84) 
nan

>  <method>  (84) 
nan

>  <ddG>  (84) 
-5.16512

>  <score>  (84) 
4.651741

>  <ref_mols>  (84) 
A71x0884a,A71x0451a

>  <original SMILES>  (84) 
CC(=O)N1CCCC(CSCCO)C1

>  <ref_pdb>  (84) 
A71x0310a

>  <butcher #BAD>  (84) 
1

>  <butcher #GOOD>  (84) 
13

>  <butcher #protein clash>  (84) 
0

>  <butcher #solvent space>  (84) 
1

>  <butcher #pocket>  (84) 
13

>  <butcher #P1>  (84) 
11

>  <butcher #P2>  (84) 
0

>  <butcher #P1'>  (84) 
0

>  <butcher #P2'>  (84) 
0

>  <butcher #P3>  (84) 
2

>  <butcher #P4>  (84) 
0

>  <butcher #P5>  (84) 
0

>  <butcher #P6>  (84) 
0

$$$$
GWBCDFDIIXDGKA_UHFFF
     RDKit          3D

 10  9  0  0  0  0  0  0  0  0999 V2000
    7.2640   13.0240   25.8260 S   0  0  0  0  0  0  0  0  0  0  0  0
    7.5490   11.9640   24.4250 C   0  0  0  0  0  0  0  0  0  0  0  0
    8.8800   11.2860   24.4340 C   0  0  0  0  0  0  0  0  0  0  0  0
    9.8860   12.1450   23.9030 O   0  0  0  0  0  0  0  0  0  0  0  0
    9.6440   13.5220   24.1540 C   0  0  0  0  0  0  0  0  0  0  0  0
    8.7580   10.0780   23.6600 O   0  0  0  0  0  0  0  0  0  0  0  0
    9.9540    9.6840   22.9950 C   0  0  0  0  0  0  0  0  0  0  0  0
    5.5950   12.3880   26.1910 C   0  0  0  0  0  0  0  0  0  0  0  0
    5.6660   10.9050   26.5940 C   0  0  0  0  0  0  0  0  0  0  0  0
    4.9290   13.2380   27.2610 C   0  0  0  0  0  0  0  0  0  0  0  0
  1  2  1  0
  2  3  1  0
  3  4  1  0
  4  5  1  0
  3  6  1  0
  6  7  1  0
  1  8  1  0
  8  9  1  0
  8 10  1  0
A    1
 S1 
A    2
 C1 
A    3
 C2 
A    4
 O1 
A    5
 C3 
A    6
 O2 
A    7
 C4 
A    8
 C5 
A    9
 C6 
A   10
 C7 
M  END
>  <ref_url>  (85) 
nan

>  <submitter_name>  (85) 
nan

>  <submitter_email>  (85) 
nan

>  <submitter_institution>  (85) 
nan

>  <generation_date>  (85) 
nan

>  <method>  (85) 
nan

>  <ddG>  (85) 
-5.342764

>  <score>  (85) 
11.556133

>  <ref_mols>  (85) 
A71x0446a,A71x0515a

>  <original SMILES>  (85) 
COC(CSC(C)C)OC

>  <ref_pdb>  (85) 
A71x0310a

>  <butcher #BAD>  (85) 
2

>  <butcher #GOOD>  (85) 
8

>  <butcher #protein clash>  (85) 
0

>  <butcher #solvent space>  (85) 
2

>  <butcher #pocket>  (85) 
8

>  <butcher #P1>  (85) 
8

>  <butcher #P2>  (85) 
0

>  <butcher #P1'>  (85) 
0

>  <butcher #P2'>  (85) 
0

>  <butcher #P3>  (85) 
0

>  <butcher #P4>  (85) 
0

>  <butcher #P5>  (85) 
0

>  <butcher #P6>  (85) 
0

$$$$
VLZPTVWERIPUCW_UHFFF
     RDKit          3D

  9  8  0  0  0  0  0  0  0  0999 V2000
    6.4360   11.3560   26.9720 S   0  0  0  0  0  0  0  0  0  0  0  0
    7.0260   10.3840   25.5700 C   0  0  0  0  0  0  0  0  0  0  0  0
    8.1210   10.9560   24.7010 C   0  0  0  0  0  0  0  0  0  0  0  0
    8.2840   12.2730   24.6260 N   0  0  0  0  0  0  0  0  0  0  0  0
    9.3040   12.7930   23.8820 C   0  0  0  0  0  0  0  0  0  0  0  0
    8.8460   10.2100   24.0560 O   0  0  0  0  0  0  0  0  0  0  0  0
    5.8900   12.8660   26.1230 C   0  0  0  0  0  0  0  0  0  0  0  0
    4.5870   13.3920   26.6620 C   0  0  0  0  0  0  0  0  0  0  0  0
    6.9800   13.9150   26.0660 C   0  0  0  0  0  0  0  0  0  0  0  0
  1  2  1  0
  2  3  1  0
  3  4  1  0
  4  5  1  0
  3  6  2  0
  1  7  1  0
  7  8  1  0
  7  9  1  0
A    1
 S1 
A    2
 C1 
A    3
 C2 
A    4
 N1 
A    5
 C3 
A    6
 O1 
A    7
 C4 
A    8
 C5 
A    9
 C6 
M  END
>  <ref_url>  (86) 
nan

>  <submitter_name>  (86) 
nan

>  <submitter_email>  (86) 
nan

>  <submitter_institution>  (86) 
nan

>  <generation_date>  (86) 
nan

>  <method>  (86) 
nan

>  <ddG>  (86) 
-2.860754

>  <score>  (86) 
18.587763

>  <ref_mols>  (86) 
A71x0446a,A71x0515a

>  <original SMILES>  (86) 
CNC(=O)CSC(C)C

>  <ref_pdb>  (86) 
A71x0310a

>  <butcher #BAD>  (86) 
1

>  <butcher #GOOD>  (86) 
8

>  <butcher #protein clash>  (86) 
0

>  <butcher #solvent space>  (86) 
1

>  <butcher #pocket>  (86) 
8

>  <butcher #P1>  (86) 
8

>  <butcher #P2>  (86) 
0

>  <butcher #P1'>  (86) 
0

>  <butcher #P2'>  (86) 
0

>  <butcher #P3>  (86) 
0

>  <butcher #P4>  (86) 
0

>  <butcher #P5>  (86) 
0

>  <butcher #P6>  (86) 
0

$$$$
NYHGFBASBWPUPF_UHFFF
     RDKit          3D

  9  8  0  0  0  0  0  0  0  0999 V2000
    7.0800   12.6700   25.1560 S   0  0  0  0  0  0  0  0  0  0  0  0
    7.7640   10.9850   24.9770 C   0  0  0  0  0  0  0  0  0  0  0  0
    8.9790   10.9930   24.0510 C   0  0  0  0  0  0  0  0  0  0  0  0
    9.4220    9.6710   23.5790 N   0  0  0  0  0  0  0  0  0  0  0  0
    9.6300   12.1300   23.6860 N   0  0  0  0  0  0  0  0  0  0  0  0
   10.7250   11.8320   22.8830 O   0  0  0  0  0  0  0  0  0  0  0  0
    5.9560   12.3610   26.5350 C   0  0  0  0  0  0  0  0  0  0  0  0
    5.6800   10.8560   26.6330 C   0  0  0  0  0  0  0  0  0  0  0  0
    4.6600   13.1340   26.3030 C   0  0  0  0  0  0  0  0  0  0  0  0
  1  2  1  0
  2  3  1  0
  3  4  1  0
  3  5  2  3
  5  6  1  0
  1  7  1  0
  7  8  1  0
  7  9  1  0
A    1
 S1 
A    2
 C1 
A    3
 C2 
A    4
 N1 
A    5
 N2 
A    6
 O1 
A    7
 C3 
A    8
 C4 
A    9
 C5 
M  END
>  <ref_url>  (87) 
nan

>  <submitter_name>  (87) 
nan

>  <submitter_email>  (87) 
nan

>  <submitter_institution>  (87) 
nan

>  <generation_date>  (87) 
nan

>  <method>  (87) 
nan

>  <ddG>  (87) 
-4.082759

>  <score>  (87) 
12.791557

>  <ref_mols>  (87) 
A71x0446a,A71x0515a

>  <original SMILES>  (87) 
CC(C)SCC(N)=NO

>  <ref_pdb>  (87) 
A71x0310a

>  <butcher #BAD>  (87) 
1

>  <butcher #GOOD>  (87) 
8

>  <butcher #protein clash>  (87) 
0

>  <butcher #solvent space>  (87) 
1

>  <butcher #pocket>  (87) 
8

>  <butcher #P1>  (87) 
7

>  <butcher #P2>  (87) 
0

>  <butcher #P1'>  (87) 
0

>  <butcher #P2'>  (87) 
0

>  <butcher #P3>  (87) 
1

>  <butcher #P4>  (87) 
0

>  <butcher #P5>  (87) 
0

>  <butcher #P6>  (87) 
0

$$$$
ICVFPLUSMYSIFO_UHFFF
     RDKit          3D

  8  7  0  0  0  0  0  0  0  0999 V2000
    8.7660    9.9340   23.6320 N   0  0  0  0  0  0  0  0  0  0  0  0
    8.3880   10.6170   24.8770 C   0  0  0  0  0  0  0  0  0  0  0  0
    7.2100   11.5490   24.9120 C   0  0  0  0  0  0  0  0  0  0  0  0
   10.0570   10.2880   23.0590 C   0  0  0  0  0  0  0  0  0  0  0  0
   10.3470   11.8140   23.0990 C   0  0  0  0  0  0  0  0  0  0  0  0
    9.0960   12.6650   23.1690 C   0  0  0  0  0  0  0  0  0  0  0  0
    9.0450   13.5100   24.4380 C   0  0  0  0  0  0  0  0  0  0  0  0
   10.4370   14.0730   24.7390 C   0  0  0  0  0  0  0  0  0  0  0  0
  1  2  1  0
  2  3  1  0
  1  4  1  0
  4  5  1  0
  5  6  1  0
  6  7  1  0
  7  8  1  0
A    1
 N1 
A    2
 C1 
A    3
 C2 
A    4
 C3 
A    5
 C4 
A    6
 C5 
A    7
 C6 
A    8
 C7 
M  END
>  <ref_url>  (88) 
nan

>  <submitter_name>  (88) 
nan

>  <submitter_email>  (88) 
nan

>  <submitter_institution>  (88) 
nan

>  <generation_date>  (88) 
nan

>  <method>  (88) 
nan

>  <ddG>  (88) 
-2.616585

>  <score>  (88) 
26.838678

>  <ref_mols>  (88) 
A71x0446a,A71x0515a

>  <original SMILES>  (88) 
CCCCCNCC

>  <ref_pdb>  (88) 
A71x0310a

>  <butcher #BAD>  (88) 
0

>  <butcher #GOOD>  (88) 
8

>  <butcher #protein clash>  (88) 
0

>  <butcher #solvent space>  (88) 
0

>  <butcher #pocket>  (88) 
8

>  <butcher #P1>  (88) 
8

>  <butcher #P2>  (88) 
0

>  <butcher #P1'>  (88) 
0

>  <butcher #P2'>  (88) 
0

>  <butcher #P3>  (88) 
0

>  <butcher #P4>  (88) 
0

>  <butcher #P5>  (88) 
0

>  <butcher #P6>  (88) 
0

$$$$
RDHCOVIKZOMVHZ_UHFFF
     RDKit          3D

 19 19  0  0  0  0  0  0  0  0999 V2000
    7.5850   12.9940   23.8540 O   0  0  0  0  0  0  0  0  0  0  0  0
    7.2110   13.3330   25.1390 C   0  0  0  0  0  0  0  0  0  0  0  0
    7.4770   12.7060   26.1700 O   0  0  0  0  0  0  0  0  0  0  0  0
    6.4070   14.6120   25.1360 C   0  0  1  0  0  0  0  0  0  0  0  0
    6.7260   15.6020   26.2460 C   0  0  0  0  0  0  0  0  0  0  0  0
    8.1370   15.6430   26.8700 C   0  0  0  0  0  0  0  0  0  0  0  0
    7.9670   16.3010   28.2380 C   0  0  0  0  0  0  0  0  0  0  0  0
    6.4670   16.2030   28.5870 C   0  0  0  0  0  0  0  0  0  0  0  0
    5.7510   15.5330   27.4070 C   0  0  0  0  0  0  0  0  0  0  0  0
    6.6460   15.2950   23.9880 F   0  0  0  0  0  0  0  0  0  0  0  0
    8.9920   13.0610   23.5900 C   0  0  2  0  0  0  0  0  0  0  0  0
    9.5090   13.7790   22.3260 C   0  0  0  0  0  0  0  0  0  0  0  0
    8.4030   14.3730   21.4440 C   0  0  0  0  0  0  0  0  0  0  0  0
    6.9740   14.1980   21.9670 C   0  0  0  0  0  0  0  0  0  0  0  0
    9.6880   11.7490   23.9390 C   0  0  0  0  0  0  0  0  0  0  0  0
    9.3050   10.3720   23.4050 C   0  0  0  0  0  0  0  0  0  0  0  0
    8.3750    9.7550   24.2060 O   0  0  0  0  0  0  0  0  0  0  0  0
    7.6780   10.6230   25.0890 C   0  0  0  0  0  0  0  0  0  0  0  0
    9.7750    9.8150   22.4320 O   0  0  0  0  0  0  0  0  0  0  0  0
  1  2  1  0
  2  3  2  0
  2  4  1  0
  4  5  1  0
  5  6  1  0
  6  7  1  0
  7  8  1  0
  8  9  1  0
  4 10  1  6
  1 11  1  0
 11 12  1  6
 12 13  1  0
 13 14  1  0
 11 15  1  0
 15 16  1  0
 16 17  1  0
 17 18  1  0
 16 19  2  0
  9  5  1  0
A    1
 O1 
A    2
 C1 
A    3
 O2 
A    4
 C2 
A    5
 C3 
A    6
 C4 
A    7
 C5 
A    8
 C6 
A    9
 C7 
A   10
 F1 
A   11
 C8 
A   12
 C9 
A   13
 C10
A   14
 C11
A   15
 C12
A   16
 C13
A   17
 O3 
A   18
 C14
A   19
 O4 
M  END
>  <ref_url>  (89) 
nan

>  <submitter_name>  (89) 
nan

>  <submitter_email>  (89) 
nan

>  <submitter_institution>  (89) 
nan

>  <generation_date>  (89) 
nan

>  <method>  (89) 
nan

>  <ddG>  (89) 
-1.963249

>  <score>  (89) 
17.174612

>  <ref_mols>  (89) 
A71x0416a,A71x0566a

>  <original SMILES>  (89) 
CCCC(CC(=O)OC)OC(=O)C(F)C1CCCC1

>  <ref_pdb>  (89) 
A71x0310a

>  <butcher #BAD>  (89) 
5

>  <butcher #GOOD>  (89) 
14

>  <butcher #protein clash>  (89) 
0

>  <butcher #solvent space>  (89) 
5

>  <butcher #pocket>  (89) 
14

>  <butcher #P1>  (89) 
10

>  <butcher #P2>  (89) 
1

>  <butcher #P1'>  (89) 
0

>  <butcher #P2'>  (89) 
0

>  <butcher #P3>  (89) 
3

>  <butcher #P4>  (89) 
0

>  <butcher #P5>  (89) 
0

>  <butcher #P6>  (89) 
0

$$$$
UEIZMUTXRMXALN_UHFFF
     RDKit          3D

 17 17  0  0  0  0  0  0  0  0999 V2000
   11.3800   13.8340   23.5660 C   0  0  0  0  0  0  0  0  0  0  0  0
   11.1230   12.4850   23.6380 N   0  0  0  0  0  0  0  0  0  0  0  0
    9.9070   11.8490   23.1360 C   0  0  2  0  0  0  0  0  0  0  0  0
    8.6110   12.4050   23.7720 C   0  0  2  0  0  0  0  0  0  0  0  0
    8.8580   13.6710   24.5490 C   0  0  0  0  0  0  0  0  0  0  0  0
    7.8540   13.9110   25.6130 N   0  0  0  0  0  0  0  0  0  0  0  0
    7.2270   12.6670   26.1000 C   0  0  0  0  0  0  0  0  0  0  0  0
    6.8130   14.8240   25.1650 C   0  0  0  0  0  0  0  0  0  0  0  0
    7.7770   11.5020   24.6590 C   0  0  0  0  0  0  0  0  0  0  0  0
    8.1170   10.0620   24.7110 C   0  0  0  0  0  0  0  0  0  0  0  0
    9.0200    9.4420   23.6570 C   0  0  0  0  0  0  0  0  0  0  0  0
   10.0780   10.3130   23.0420 C   0  0  0  0  0  0  0  0  0  0  0  0
   11.6370   14.5060   24.5530 O   0  0  0  0  0  0  0  0  0  0  0  0
   11.3090   14.3940   22.1640 C   0  0  0  0  0  0  0  0  0  0  0  0
   12.6640   14.6840   21.5660 C   0  0  0  0  0  0  0  0  0  0  0  0
   12.7710   14.1280   20.1520 C   0  0  0  0  0  0  0  0  0  0  0  0
   11.6140   14.5350   19.2100 C   0  0  0  0  0  0  0  0  0  0  0  0
  1  2  1  0
  3  2  1  1
  3  4  1  0
  4  5  1  1
  5  6  1  0
  6  7  1  0
  6  8  1  0
  4  9  1  0
  9 10  1  0
 10 11  1  0
 11 12  1  0
  1 13  2  0
  1 14  1  0
 14 15  1  0
 15 16  1  0
 16 17  1  0
 12  3  1  0
A    1
 C1 
A    2
 N1 
A    3
 C2 
A    4
 C3 
A    5
 C4 
A    6
 N2 
A    7
 C5 
A    8
 C6 
A    9
 C7 
A   10
 C8 
A   11
 C9 
A   12
 C10
A   13
 O1 
A   14
 C11
A   15
 C12
A   16
 C13
A   17
 C14
M  END
>  <ref_url>  (90) 
nan

>  <submitter_name>  (90) 
nan

>  <submitter_email>  (90) 
nan

>  <submitter_institution>  (90) 
nan

>  <generation_date>  (90) 
nan

>  <method>  (90) 
nan

>  <ddG>  (90) 
-1.196678

>  <score>  (90) 
9410.680327

>  <ref_mols>  (90) 
A71x0554a,A71x0351a

>  <original SMILES>  (90) 
CCCCC(=O)NC1CCCCC1CN(C)C

>  <ref_pdb>  (90) 
A71x0310a

>  <butcher #BAD>  (90) 
2

>  <butcher #GOOD>  (90) 
15

>  <butcher #protein clash>  (90) 
0

>  <butcher #solvent space>  (90) 
2

>  <butcher #pocket>  (90) 
15

>  <butcher #P1>  (90) 
13

>  <butcher #P2>  (90) 
1

>  <butcher #P1'>  (90) 
1

>  <butcher #P2'>  (90) 
0

>  <butcher #P3>  (90) 
0

>  <butcher #P4>  (90) 
0

>  <butcher #P5>  (90) 
0

>  <butcher #P6>  (90) 
0

$$$$
HWTIOOSWYIHHGN_UHFFF
     RDKit          3D

 19 19  0  0  0  0  0  0  0  0999 V2000
   11.2030   13.8890   22.8860 C   0  0  0  0  0  0  0  0  0  0  0  0
   10.4360   12.8320   22.4400 N   0  0  0  0  0  0  0  0  0  0  0  0
    9.8430   11.9440   23.4240 C   0  0  1  0  0  0  0  0  0  0  0  0
    8.4320   12.4160   23.7670 C   0  0  2  0  0  0  0  0  0  0  0  0
    8.4880   13.7940   24.4060 C   0  0  0  0  0  0  0  0  0  0  0  0
    7.6730   13.9130   25.6280 N   0  0  0  0  0  0  0  0  0  0  0  0
    7.0130   12.6660   26.0510 C   0  0  0  0  0  0  0  0  0  0  0  0
    6.6910   14.9740   25.4770 C   0  0  0  0  0  0  0  0  0  0  0  0
    7.6670   11.5190   24.7120 C   0  0  0  0  0  0  0  0  0  0  0  0
    8.0710   10.0820   24.7500 C   0  0  0  0  0  0  0  0  0  0  0  0
    9.0000    9.5100   23.6790 C   0  0  0  0  0  0  0  0  0  0  0  0
    9.9980   10.4510   23.0590 C   0  0  0  0  0  0  0  0  0  0  0  0
   10.9640   14.4570   23.9350 O   0  0  0  0  0  0  0  0  0  0  0  0
   12.4040   14.3170   22.0300 C   0  0  0  0  0  0  0  0  0  0  0  0
   13.5250   14.5260   23.0130 N   0  0  0  0  0  0  0  0  0  0  0  0
   13.2390   13.7840   24.3340 S   0  0  0  0  0  6  0  0  0  0  0  0
   12.4310   14.9280   25.4280 C   0  0  0  0  0  0  0  0  0  0  0  0
   12.4320   12.6070   24.3130 O   0  0  0  0  0  0  0  0  0  0  0  0
   14.7180   13.3490   25.2300 C   0  0  0  0  0  0  0  0  0  0  0  0
  1  2  1  0
  3  2  1  6
  3  4  1  0
  4  5  1  1
  5  6  1  0
  6  7  1  0
  6  8  1  0
  4  9  1  0
  9 10  1  0
 10 11  1  0
 11 12  1  0
  1 13  2  0
  1 14  1  0
 14 15  1  0
 15 16  2  0
 16 17  1  0
 16 18  2  0
 16 19  1  0
 12  3  1  0
A    1
 C1 
A    2
 N1 
A    3
 C2 
A    4
 C3 
A    5
 C4 
A    6
 N2 
A    7
 C5 
A    8
 C6 
A    9
 C7 
A   10
 C8 
A   11
 C9 
A   12
 C10
A   13
 O1 
A   14
 C11
A   15
 N3 
A   16
 S1 
A   17
 C12
A   18
 O2 
A   19
 C13
M  END
>  <ref_url>  (91) 
nan

>  <submitter_name>  (91) 
nan

>  <submitter_email>  (91) 
nan

>  <submitter_institution>  (91) 
nan

>  <generation_date>  (91) 
nan

>  <method>  (91) 
nan

>  <ddG>  (91) 
-0.891688

>  <score>  (91) 
4903.465443

>  <ref_mols>  (91) 
A71x0554a,A71x0351a

>  <original SMILES>  (91) 
CN(C)CC1CCCCC1NC(=O)CN=S(C)(C)=O

>  <ref_pdb>  (91) 
A71x0310a

>  <butcher #BAD>  (91) 
1

>  <butcher #GOOD>  (91) 
18

>  <butcher #protein clash>  (91) 
0

>  <butcher #solvent space>  (91) 
1

>  <butcher #pocket>  (91) 
18

>  <butcher #P1>  (91) 
13

>  <butcher #P2>  (91) 
0

>  <butcher #P1'>  (91) 
5

>  <butcher #P2'>  (91) 
0

>  <butcher #P3>  (91) 
0

>  <butcher #P4>  (91) 
0

>  <butcher #P5>  (91) 
0

>  <butcher #P6>  (91) 
0

$$$$
RSMLQFGDJSSXKW_UHFFF
     RDKit          3D

 17 17  0  0  0  0  0  0  0  0999 V2000
   11.3630   14.0090   23.2810 C   0  0  0  0  0  0  0  0  0  0  0  0
   10.8640   12.8110   22.7590 N   0  0  0  0  0  0  0  0  0  0  0  0
    9.6450   12.0950   23.1610 C   0  0  2  0  0  0  0  0  0  0  0  0
    9.0350   12.4120   24.5070 C   0  0  1  0  0  0  0  0  0  0  0  0
    8.7550   13.8520   24.8110 C   0  0  0  0  0  0  0  0  0  0  0  0
    7.5980   13.9980   25.7280 N   0  0  0  0  0  0  0  0  0  0  0  0
    7.1530   12.7580   26.1850 C   0  0  0  0  0  0  0  0  0  0  0  0
    6.7100   15.0210   25.2510 C   0  0  0  0  0  0  0  0  0  0  0  0
    7.7280   11.6630   24.6090 C   0  0  0  0  0  0  0  0  0  0  0  0
    7.9960   10.2050   24.7800 C   0  0  0  0  0  0  0  0  0  0  0  0
    8.9480    9.6180   23.7420 C   0  0  0  0  0  0  0  0  0  0  0  0
    9.9080   10.5650   23.0300 C   0  0  0  0  0  0  0  0  0  0  0  0
   11.3600   14.3420   24.4540 O   0  0  0  0  0  0  0  0  0  0  0  0
   11.9390   14.8880   22.1690 C   0  0  0  0  0  0  0  0  0  0  0  0
   11.6040   14.1470   20.9020 C   0  0  0  0  0  0  0  0  0  0  0  0
   11.2290   14.9050   19.2740 S   0  0  0  0  0  0  0  0  0  0  0  0
    9.6310   15.7130   19.5620 C   0  0  0  0  0  0  0  0  0  0  0  0
  1  2  1  0
  3  2  1  1
  3  4  1  0
  4  5  1  6
  5  6  1  0
  6  7  1  0
  6  8  1  0
  4  9  1  0
  9 10  1  0
 10 11  1  0
 11 12  1  0
  1 13  2  0
  1 14  1  0
 14 15  1  0
 15 16  1  0
 16 17  1  0
 12  3  1  0
A    1
 C1 
A    2
 N1 
A    3
 C2 
A    4
 C3 
A    5
 C4 
A    6
 N2 
A    7
 C5 
A    8
 C6 
A    9
 C7 
A   10
 C8 
A   11
 C9 
A   12
 C10
A   13
 O1 
A   14
 C11
A   15
 C12
A   16
 S1 
A   17
 C13
M  END
>  <ref_url>  (92) 
nan

>  <submitter_name>  (92) 
nan

>  <submitter_email>  (92) 
nan

>  <submitter_institution>  (92) 
nan

>  <generation_date>  (92) 
nan

>  <method>  (92) 
nan

>  <ddG>  (92) 
-2.31071

>  <score>  (92) 
88.004214

>  <ref_mols>  (92) 
A71x0554a,A71x0351a

>  <original SMILES>  (92) 
CSCCC(=O)NC1CCCCC1CN(C)C

>  <ref_pdb>  (92) 
A71x0310a

>  <butcher #BAD>  (92) 
0

>  <butcher #GOOD>  (92) 
17

>  <butcher #protein clash>  (92) 
0

>  <butcher #solvent space>  (92) 
0

>  <butcher #pocket>  (92) 
17

>  <butcher #P1>  (92) 
11

>  <butcher #P2>  (92) 
3

>  <butcher #P1'>  (92) 
2

>  <butcher #P2'>  (92) 
0

>  <butcher #P3>  (92) 
1

>  <butcher #P4>  (92) 
0

>  <butcher #P5>  (92) 
0

>  <butcher #P6>  (92) 
0

$$$$
NZDNZZCHBQWHQZ_UHFFF
     RDKit          3D

 19 19  0  0  0  0  0  0  0  0999 V2000
   11.5080   13.7310   23.1610 C   0  0  0  0  0  0  0  0  0  0  0  0
   10.5710   12.7900   22.5750 N   0  0  0  0  0  0  0  0  0  0  0  0
    9.8520   11.9530   23.5020 C   0  0  1  0  0  0  0  0  0  0  0  0
    8.4420   12.4360   23.7340 C   0  0  2  0  0  0  0  0  0  0  0  0
    8.3740   13.8350   24.3210 C   0  0  0  0  0  0  0  0  0  0  0  0
    7.6250   13.8740   25.5810 N   0  0  0  0  0  0  0  0  0  0  0  0
    7.1020   12.6810   26.1060 C   0  0  0  0  0  0  0  0  0  0  0  0
    7.0020   15.0980   25.7250 C   0  0  0  0  0  0  0  0  0  0  0  0
    7.6980   11.5310   24.7030 C   0  0  0  0  0  0  0  0  0  0  0  0
    8.0740   10.0700   24.7470 C   0  0  0  0  0  0  0  0  0  0  0  0
    9.0040    9.5100   23.6720 C   0  0  0  0  0  0  0  0  0  0  0  0
   10.0160   10.4690   23.1050 C   0  0  0  0  0  0  0  0  0  0  0  0
   11.6870   13.9220   24.5490 O   0  0  0  0  0  0  0  0  0  0  0  0
   12.2780   14.5110   22.1450 C   0  0  0  0  0  0  0  0  0  0  0  0
   11.3430   14.8820   20.9990 C   0  0  0  0  0  0  0  0  0  0  0  0
   11.9650   14.9000   19.9470 O   0  0  0  0  0  0  0  0  0  0  0  0
   11.1380   15.0010   18.7890 C   0  0  0  0  0  0  0  0  0  0  0  0
    9.9700   16.0000   18.8170 C   0  0  0  0  0  0  0  0  0  0  0  0
   10.1510   15.1270   21.1090 O   0  0  0  0  0  0  0  0  0  0  0  0
  1  2  1  0
  3  2  1  6
  3  4  1  0
  4  5  1  1
  5  6  1  0
  6  7  1  0
  6  8  1  0
  4  9  1  0
  9 10  1  0
 10 11  1  0
 11 12  1  0
  1 13  2  0
  1 14  1  0
 14 15  1  0
 15 16  1  0
 16 17  1  0
 17 18  1  0
 15 19  2  0
 12  3  1  0
A    1
 C1 
A    2
 N1 
A    3
 C2 
A    4
 C3 
A    5
 C4 
A    6
 N2 
A    7
 C5 
A    8
 C6 
A    9
 C7 
A   10
 C8 
A   11
 C9 
A   12
 C10
A   13
 O1 
A   14
 C11
A   15
 C12
A   16
 O2 
A   17
 C13
A   18
 C14
A   19
 O3 
M  END
>  <ref_url>  (93) 
nan

>  <submitter_name>  (93) 
nan

>  <submitter_email>  (93) 
nan

>  <submitter_institution>  (93) 
nan

>  <generation_date>  (93) 
nan

>  <method>  (93) 
nan

>  <ddG>  (93) 
-1.682255

>  <score>  (93) 
7002.663408

>  <ref_mols>  (93) 
A71x0554a,A71x0351a

>  <original SMILES>  (93) 
CCOC(=O)CC(=O)NC1CCCCC1CN(C)C

>  <ref_pdb>  (93) 
A71x0310a

>  <butcher #BAD>  (93) 
1

>  <butcher #GOOD>  (93) 
18

>  <butcher #protein clash>  (93) 
0

>  <butcher #solvent space>  (93) 
1

>  <butcher #pocket>  (93) 
18

>  <butcher #P1>  (93) 
11

>  <butcher #P2>  (93) 
5

>  <butcher #P1'>  (93) 
2

>  <butcher #P2'>  (93) 
0

>  <butcher #P3>  (93) 
0

>  <butcher #P4>  (93) 
0

>  <butcher #P5>  (93) 
0

>  <butcher #P6>  (93) 
0

$$$$
JVUYQEWPHFKOIQ_UHFFF
     RDKit          3D

 14 15  0  0  0  0  0  0  0  0999 V2000
   10.8610   12.7620   22.5320 C   0  0  0  0  0  0  0  0  0  0  0  0
   10.5290   11.6780   23.3660 O   0  0  0  0  0  0  0  0  0  0  0  0
    9.2090   11.5410   23.4570 C   0  0  0  0  0  0  0  0  0  0  0  0
    8.5760   12.5480   24.4100 C   0  0  0  0  0  0  0  0  0  0  0  0
    7.5210   11.8620   25.2310 C   0  0  0  0  0  0  0  0  0  0  0  0
    7.8000   10.3600   25.0630 C   0  0  0  0  0  0  0  0  0  0  0  0
    8.8600   10.1410   23.9840 C   0  0  0  0  0  0  0  0  0  0  0  0
   11.0840   13.9680   23.3180 C   0  0  1  0  0  0  0  0  0  0  0  0
   11.5050   13.5940   24.3980 O   0  0  0  0  0  0  0  0  0  0  0  0
   12.5130   14.4890   24.7920 C   0  0  0  0  0  0  0  0  0  0  0  0
   13.8190   13.6900   25.0050 C   0  0  0  0  0  0  0  0  0  0  0  0
   11.9910   15.0870   26.0560 C   0  0  0  0  0  0  0  0  0  0  0  0
   12.6410   15.5170   23.8000 O   0  0  0  0  0  0  0  0  0  0  0  0
   12.1110   14.8870   22.6670 C   0  0  0  0  0  0  0  0  0  0  0  0
  1  2  1  0
  2  3  1  0
  3  4  1  0
  4  5  1  0
  5  6  1  0
  6  7  1  0
  8  1  1  6
  8  9  1  0
  9 10  1  0
 10 11  1  0
 10 12  1  0
 10 13  1  0
 13 14  1  0
  7  3  1  0
 14  8  1  0
A    1
 C1 
A    2
 O1 
A    3
 C2 
A    4
 C3 
A    5
 C4 
A    6
 C5 
A    7
 C6 
A    8
 C7 
A    9
 O2 
A   10
 C8 
A   11
 C9 
A   12
 C10
A   13
 O3 
A   14
 C11
M  END
>  <ref_url>  (94) 
nan

>  <submitter_name>  (94) 
nan

>  <submitter_email>  (94) 
nan

>  <submitter_institution>  (94) 
nan

>  <generation_date>  (94) 
nan

>  <method>  (94) 
nan

>  <ddG>  (94) 
-1.83488

>  <score>  (94) 
4.856513

>  <ref_mols>  (94) 
A71x0554a,A71x0566a

>  <original SMILES>  (94) 
CC1(C)OCC(COC2CCCC2)O1

>  <ref_pdb>  (94) 
A71x0310a

>  <butcher #BAD>  (94) 
0

>  <butcher #GOOD>  (94) 
14

>  <butcher #protein clash>  (94) 
0

>  <butcher #solvent space>  (94) 
0

>  <butcher #pocket>  (94) 
14

>  <butcher #P1>  (94) 
9

>  <butcher #P2>  (94) 
0

>  <butcher #P1'>  (94) 
5

>  <butcher #P2'>  (94) 
0

>  <butcher #P3>  (94) 
0

>  <butcher #P4>  (94) 
0

>  <butcher #P5>  (94) 
0

>  <butcher #P6>  (94) 
0

$$$$
WAFCJSXAABUMFY_UHFFF
     RDKit          3D

 14 14  0  0  0  0  0  0  0  0999 V2000
   10.0020   10.2290   23.2360 C   0  0  0  0  0  0  0  0  0  0  0  0
    9.2940    9.6260   24.3150 O   0  0  0  0  0  0  0  0  0  0  0  0
    8.0420   10.2200   24.5420 C   0  0  0  0  0  0  0  0  0  0  0  0
    8.0060   11.5110   25.2860 C   0  0  2  0  0  0  0  0  0  0  0  0
    6.7490   11.7560   26.1220 C   0  0  0  0  0  0  0  0  0  0  0  0
    6.3950   13.2190   26.0190 C   0  0  0  0  0  0  0  0  0  0  0  0
    7.4430   13.8100   25.2420 O   0  0  0  0  0  0  0  0  0  0  0  0
    8.0010   12.7650   24.4280 C   0  0  0  0  0  0  0  0  0  0  0  0
   10.0030   11.7680   23.3150 C   0  0  0  0  0  0  0  0  0  0  0  0
   11.2640   12.3330   22.9480 O   0  0  0  0  0  0  0  0  0  0  0  0
   11.3320   13.7660   22.8100 C   0  0  0  0  0  0  0  0  0  0  0  0
   11.4350   14.2970   24.2460 C   0  0  0  0  0  0  0  0  0  0  0  0
   12.5700   14.2530   22.0480 C   0  0  0  0  0  0  0  0  0  0  0  0
   10.0710   14.2910   22.1190 C   0  0  0  0  0  0  0  0  0  0  0  0
  1  2  1  0
  2  3  1  0
  4  3  1  6
  4  5  1  0
  5  6  1  0
  6  7  1  0
  7  8  1  0
  1  9  1  0
  9 10  1  0
 10 11  1  0
 11 12  1  0
 11 13  1  0
 11 14  1  0
  8  4  1  0
A    1
 C1 
A    2
 O1 
A    3
 C2 
A    4
 C3 
A    5
 C4 
A    6
 C5 
A    7
 O2 
A    8
 C6 
A    9
 C7 
A   10
 O3 
A   11
 C8 
A   12
 C9 
A   13
 C10
A   14
 C11
M  END
>  <ref_url>  (95) 
nan

>  <submitter_name>  (95) 
nan

>  <submitter_email>  (95) 
nan

>  <submitter_institution>  (95) 
nan

>  <generation_date>  (95) 
nan

>  <method>  (95) 
nan

>  <ddG>  (95) 
-2.248787

>  <score>  (95) 
17.977776

>  <ref_mols>  (95) 
A71x0554a,A71x0566a

>  <original SMILES>  (95) 
CC(C)(C)OCCOCC1CCOC1

>  <ref_pdb>  (95) 
A71x0310a

>  <butcher #BAD>  (95) 
0

>  <butcher #GOOD>  (95) 
14

>  <butcher #protein clash>  (95) 
0

>  <butcher #solvent space>  (95) 
0

>  <butcher #pocket>  (95) 
14

>  <butcher #P1>  (95) 
12

>  <butcher #P2>  (95) 
0

>  <butcher #P1'>  (95) 
2

>  <butcher #P2'>  (95) 
0

>  <butcher #P3>  (95) 
0

>  <butcher #P4>  (95) 
0

>  <butcher #P5>  (95) 
0

>  <butcher #P6>  (95) 
0

$$$$
