Z700712754
     RDKit          3D

 23 26  0  0  0  0  0  0  0  0999 V2000
    9.9193   17.6011   17.3200 O   0  0  0  0  0  0  0  0  0  0  0  0
   10.2848   16.7845   18.1345 C   0  0  0  0  0  0  0  0  0  0  0  0
   11.0417   15.6349   17.8887 N   0  0  0  0  0  0  0  0  0  0  0  0
   11.2533   14.8549   18.9941 C   0  0  0  0  0  0  0  0  0  0  0  0
   11.9258   13.8516   19.0255 O   0  0  0  0  0  0  0  0  0  0  0  0
   10.5313   15.5677   20.1587 C   0  0  0  0  0  0  0  0  0  0  0  0
    9.2764   14.8128   20.6183 C   0  0  0  0  0  0  0  0  0  0  0  0
    9.6096   13.6180   21.4955 C   0  0  0  0  0  0  0  0  0  0  0  0
   10.4305   14.0364   22.6103 N   0  0  0  0  0  0  0  0  0  0  0  0
   10.1307   13.8707   23.9359 C   0  0  0  0  0  0  0  0  0  0  0  0
   10.5782   14.5995   24.8049 O   0  0  0  0  0  0  0  0  0  0  0  0
    9.2025   12.7307   24.2871 C   0  0  0  0  0  0  0  0  0  0  0  0
    8.1658   12.9305   25.2103 C   0  0  0  0  0  0  0  0  0  0  0  0
    7.3706   11.8781   25.6488 C   0  0  0  0  0  0  0  0  0  0  0  0
    7.5964   10.5643   25.2101 C   0  0  0  0  0  0  0  0  0  0  0  0
    8.6372   10.3730   24.3351 C   0  0  0  0  0  0  0  0  0  0  0  0
    9.4150   11.4262   23.8731 C   0  0  0  0  0  0  0  0  0  0  0  0
   10.3444   10.9429   22.9892 O   0  0  0  0  0  0  0  0  0  0  0  0
   10.3076    9.5278   23.1661 C   0  0  0  0  0  0  0  0  0  0  0  0
    9.0566    9.2024   23.7535 O   0  0  0  0  0  0  0  0  0  0  0  0
   11.7219   14.5604   22.1833 C   0  0  0  0  0  0  0  0  0  0  0  0
   11.5531   15.7899   21.2902 C   0  0  0  0  0  0  0  0  0  0  0  0
   10.1192   16.8035   19.4979 N   0  0  0  0  0  0  0  0  0  0  0  0
  1  2  2  0
  2  3  1  0
  3  4  1  0
  4  5  2  0
  4  6  1  0
  6  7  1  0
  7  8  1  0
  8  9  1  0
  9 10  1  0
 10 11  2  0
 10 12  1  0
 12 13  2  0
 13 14  1  0
 14 15  2  0
 15 16  1  0
 16 17  2  0
 17 18  1  0
 18 19  1  0
 19 20  1  0
  9 21  1  0
 21 22  1  0
  6 23  1  0
 23  2  1  0
 22  6  1  0
 17 12  1  0
 20 16  1  0
M  END
>  <cnnaffinity>  (1) 
-5.8829

>  <cnnaffinityIC50>  (1) 
1309.4834079858076 nanomolar

>  <smiles>  (1) 
O=C1NC(=O)C2(CCN(C(=O)C3=CC=CC4=C3OCO4)CC2)N1

>  <origin>  (1) 
x0358-P2-elab.sdf

>  <ref_pdb>  (1) 
x0310

>  <butcher #BAD>  (1) 
5

>  <butcher #GOOD>  (1) 
18

>  <butcher #protein clash>  (1) 
5

>  <butcher #solvent space>  (1) 
0

>  <butcher #pocket>  (1) 
18

>  <butcher #P1>  (1) 
14

>  <butcher #P2>  (1) 
4

>  <butcher #P1'>  (1) 
0

>  <butcher #P2'>  (1) 
0

>  <butcher #P3>  (1) 
0

>  <butcher #P4>  (1) 
0

>  <butcher #P5>  (1) 
0

>  <butcher #P6>  (1) 
0

>  <ref_mols>  (1) 
A71x0351a

$$$$
Z3939980768
     RDKit          3D

 23 26  0  0  0  0  0  0  0  0999 V2000
   12.4153   14.8420   22.4313 C   0  0  0  0  0  0  0  0  0  0  0  0
   11.0589   14.8728   21.7332 C   0  0  2  0  0  0  0  0  0  0  0  0
   10.2371   13.8042   22.3310 N   0  0  0  0  0  0  0  0  0  0  0  0
    9.7648   13.8599   23.6342 C   0  0  0  0  0  0  0  0  0  0  0  0
    9.9410   14.8675   24.2985 O   0  0  0  0  0  0  0  0  0  0  0  0
    9.0184   12.7444   24.2145 C   0  0  0  0  0  0  0  0  0  0  0  0
    7.9680   12.9214   25.1470 C   0  0  0  0  0  0  0  0  0  0  0  0
    7.2784   11.8119   25.6605 C   0  0  0  0  0  0  0  0  0  0  0  0
    5.8207   12.0638   26.8724 Br  0  0  0  0  0  0  0  0  0  0  0  0
    7.6592   10.5183   25.2760 C   0  0  0  0  0  0  0  0  0  0  0  0
    8.7077   10.3507   24.3669 C   0  0  0  0  0  0  0  0  0  0  0  0
    9.3642   11.4469   23.8483 C   0  0  0  0  0  0  0  0  0  0  0  0
   10.3598   11.0793   23.0052 O   0  0  0  0  0  0  0  0  0  0  0  0
   10.3641    9.6417   23.0711 C   0  0  0  0  0  0  0  0  0  0  0  0
    9.2421    9.2054   23.8691 O   0  0  0  0  0  0  0  0  0  0  0  0
   11.2318   14.7931   20.2201 C   0  0  0  0  0  0  0  0  0  0  0  0
   12.1041   14.0744   19.5662 N   0  0  0  0  0  0  0  0  0  0  0  0
   11.9482   14.3924   18.2477 N   0  0  0  0  0  0  0  0  0  0  0  0
   11.0338   15.2791   18.0814 N   0  0  0  0  0  0  0  0  0  0  0  0
   10.5574   15.5724   19.3052 N   0  0  0  0  0  0  0  0  0  0  0  0
    9.7929   16.7873   19.6227 C   0  0  0  0  0  0  0  0  0  0  0  0
    8.3875   16.6978   20.2021 C   0  0  0  0  0  0  0  0  0  0  0  0
    8.5934   17.1969   18.7737 C   0  0  0  0  0  0  0  0  0  0  0  0
  2  1  1  1
  2  3  1  0
  3  4  1  0
  4  5  2  0
  4  6  1  0
  6  7  2  0
  7  8  1  0
  8  9  1  0
  8 10  2  0
 10 11  1  0
 11 12  2  0
 12 13  1  0
 13 14  1  0
 14 15  1  0
  2 16  1  0
 16 17  2  0
 17 18  1  0
 18 19  2  0
 19 20  1  0
 20 21  1  0
 21 22  1  0
 22 23  1  0
 12  6  1  0
 20 16  1  0
 23 21  1  0
 15 11  1  0
M  END
>  <cnnaffinity>  (2) 
-5.85667

>  <cnnaffinityIC50>  (2) 
1391.009192366978 nanomolar

>  <smiles>  (2) 
CC(NC(=O)C1=CC(Br)=CC2=C1OCO2)C1=NN=NN1C1CC1

>  <origin>  (2) 
x0358-P2-elab.sdf

>  <ref_pdb>  (2) 
x0310

>  <butcher #BAD>  (2) 
5

>  <butcher #GOOD>  (2) 
18

>  <butcher #protein clash>  (2) 
3

>  <butcher #solvent space>  (2) 
2

>  <butcher #pocket>  (2) 
18

>  <butcher #P1>  (2) 
12

>  <butcher #P2>  (2) 
5

>  <butcher #P1'>  (2) 
1

>  <butcher #P2'>  (2) 
0

>  <butcher #P3>  (2) 
0

>  <butcher #P4>  (2) 
0

>  <butcher #P5>  (2) 
0

>  <butcher #P6>  (2) 
0

>  <ref_mols>  (2) 
A71x0351a

$$$$
Z5413245914
     RDKit          3D

 23 25  0  0  0  0  0  0  0  0999 V2000
   13.8674   14.9081   25.4321 C   0  0  0  0  0  0  0  0  0  0  0  0
   13.4336   14.2545   24.1190 C   0  0  0  0  0  0  0  0  0  0  0  0
   13.5887   12.7330   24.2088 C   0  0  0  0  0  0  0  0  0  0  0  0
   12.0898   14.6449   23.6303 N   0  0  0  0  0  0  0  0  0  0  0  0
   11.9859   15.0305   22.2282 C   0  0  0  0  0  0  0  0  0  0  0  0
   11.9939   13.8490   21.2408 C   0  0  0  0  0  0  0  0  0  0  0  0
   11.9241   14.3036   19.8239 C   0  0  0  0  0  0  0  0  0  0  0  0
   10.8850   14.1660   19.0176 N   0  0  0  0  0  0  0  0  0  0  0  0
   11.3532   14.7116   17.9073 N   0  0  0  0  0  0  0  0  0  0  0  0
   12.5785   15.1701   17.9967 N   0  0  0  0  0  0  0  0  0  0  0  0
   12.9634   14.9266   19.2138 N   0  0  0  0  0  0  0  0  0  0  0  0
   10.9875   14.3498   24.4041 C   0  0  0  0  0  0  0  0  0  0  0  0
   11.0418   14.2814   25.6219 O   0  0  0  0  0  0  0  0  0  0  0  0
    9.6230   14.1283   23.7209 C   0  0  0  0  0  0  0  0  0  0  0  0
    8.9169   12.8911   24.2348 C   0  0  0  0  0  0  0  0  0  0  0  0
    7.8732   12.9700   25.1681 C   0  0  0  0  0  0  0  0  0  0  0  0
    7.2683   11.8330   25.7005 C   0  0  0  0  0  0  0  0  0  0  0  0
    7.6805   10.5481   25.3188 C   0  0  0  0  0  0  0  0  0  0  0  0
    8.6911   10.4732   24.3872 C   0  0  0  0  0  0  0  0  0  0  0  0
    9.2837   11.6128   23.8541 C   0  0  0  0  0  0  0  0  0  0  0  0
   10.1961   11.2363   22.8946 O   0  0  0  0  0  0  0  0  0  0  0  0
   10.3928    9.8448   23.1327 C   0  0  0  0  0  0  0  0  0  0  0  0
    9.2355    9.3548   23.7978 O   0  0  0  0  0  0  0  0  0  0  0  0
  1  2  1  0
  2  3  1  0
  2  4  1  0
  4  5  1  0
  5  6  1  0
  6  7  1  0
  7  8  2  0
  8  9  1  0
  9 10  1  0
 10 11  2  0
  4 12  1  0
 12 13  2  0
 12 14  1  0
 14 15  1  0
 15 16  2  0
 16 17  1  0
 17 18  2  0
 18 19  1  0
 19 20  2  0
 20 21  1  0
 21 22  1  0
 22 23  1  0
 11  7  1  0
 20 15  1  0
 23 19  1  0
M  END
>  <cnnaffinity>  (3) 
-5.84543

>  <cnnaffinityIC50>  (3) 
1427.4798941981692 nanomolar

>  <smiles>  (3) 
CC(C)N(CCC1=NNN=N1)C(=O)CC1=CC=CC2=C1OCO2

>  <origin>  (3) 
x0358-P2-elab.sdf

>  <ref_pdb>  (3) 
x0310

>  <butcher #BAD>  (3) 
5

>  <butcher #GOOD>  (3) 
18

>  <butcher #protein clash>  (3) 
3

>  <butcher #solvent space>  (3) 
2

>  <butcher #pocket>  (3) 
18

>  <butcher #P1>  (3) 
11

>  <butcher #P2>  (3) 
1

>  <butcher #P1'>  (3) 
6

>  <butcher #P2'>  (3) 
0

>  <butcher #P3>  (3) 
0

>  <butcher #P4>  (3) 
0

>  <butcher #P5>  (3) 
0

>  <butcher #P6>  (3) 
0

>  <ref_mols>  (3) 
A71x0351a

$$$$
Z2433441736
     RDKit          3D

 23 26  0  0  0  0  0  0  0  0999 V2000
   11.0855   15.3438   25.7947 O   0  0  0  0  0  0  0  0  0  0  0  0
   11.7380   14.6482   25.0245 C   0  0  0  0  0  0  0  0  0  0  0  0
   11.1564   14.0476   23.9319 N   0  0  0  0  0  0  0  0  0  0  0  0
    9.7222   14.0591   23.7213 C   0  0  0  0  0  0  0  0  0  0  0  0
    9.0014   12.8429   24.2778 C   0  0  0  0  0  0  0  0  0  0  0  0
    7.9313   12.9539   25.1782 C   0  0  0  0  0  0  0  0  0  0  0  0
    7.2739   11.8350   25.6815 C   0  0  0  0  0  0  0  0  0  0  0  0
    7.6508   10.5372   25.3048 C   0  0  0  0  0  0  0  0  0  0  0  0
    8.7078   10.4348   24.4299 C   0  0  0  0  0  0  0  0  0  0  0  0
    9.3679   11.5546   23.9419 C   0  0  0  0  0  0  0  0  0  0  0  0
   10.3657   11.1648   23.0852 O   0  0  0  0  0  0  0  0  0  0  0  0
   10.4154    9.7419   23.1788 C   0  0  0  0  0  0  0  0  0  0  0  0
    9.2647    9.3009   23.8941 O   0  0  0  0  0  0  0  0  0  0  0  0
   13.0921   14.4040   25.2009 N   0  0  0  0  0  0  0  0  0  0  0  0
   13.7724   15.1192   26.2808 C   0  0  0  0  0  0  0  0  0  0  0  0
   14.3609   14.1567   27.3123 C   0  0  0  0  0  0  0  0  0  0  0  0
   15.1130   13.0916   26.5724 C   0  0  0  0  0  0  0  0  0  0  0  0
   14.9568   12.8115   25.2520 C   0  0  0  0  0  0  0  0  0  0  0  0
   15.8853   11.8417   24.7652 C   0  0  0  0  0  0  0  0  0  0  0  0
   16.6634   11.3484   25.7643 C   0  0  0  0  0  0  0  0  0  0  0  0
   17.8643   10.1201   25.6402 Cl  0  0  0  0  0  0  0  0  0  0  0  0
   16.3141   12.0830   27.2998 S   0  0  0  0  0  0  0  0  0  0  0  0
   13.8125   13.3765   24.4535 C   0  0  0  0  0  0  0  0  0  0  0  0
  1  2  2  0
  2  3  1  0
  3  4  1  0
  4  5  1  0
  5  6  2  0
  6  7  1  0
  7  8  2  0
  8  9  1  0
  9 10  2  0
 10 11  1  0
 11 12  1  0
 12 13  1  0
  2 14  1  0
 14 15  1  0
 15 16  1  0
 16 17  1  0
 17 18  2  0
 18 19  1  0
 19 20  2  0
 20 21  1  0
 20 22  1  0
 18 23  1  0
 10  5  1  0
 23 14  1  0
 13  9  1  0
 22 17  1  0
M  END
>  <cnnaffinity>  (4) 
-5.81261

>  <cnnaffinityIC50>  (4) 
1539.5365361457957 nanomolar

>  <smiles>  (4) 
O=C(NCC1=CC=CC2=C1OCO2)N1CCC2=C(C=C(Cl)S2)C1

>  <origin>  (4) 
x0358-P2-elab.sdf

>  <ref_pdb>  (4) 
x0310

>  <butcher #BAD>  (4) 
0

>  <butcher #GOOD>  (4) 
23

>  <butcher #protein clash>  (4) 
0

>  <butcher #solvent space>  (4) 
0

>  <butcher #pocket>  (4) 
23

>  <butcher #P1>  (4) 
11

>  <butcher #P2>  (4) 
0

>  <butcher #P1'>  (4) 
7

>  <butcher #P2'>  (4) 
5

>  <butcher #P3>  (4) 
0

>  <butcher #P4>  (4) 
0

>  <butcher #P5>  (4) 
0

>  <butcher #P6>  (4) 
0

>  <ref_mols>  (4) 
A71x0351a

$$$$
Z5515073476
     RDKit          3D

 23 25  0  0  0  0  0  0  0  0999 V2000
   11.1858   15.7861   21.9963 C   0  0  0  0  0  0  0  0  0  0  0  0
   11.7489   14.3977   21.6657 C   0  0  0  0  0  0  0  0  0  0  0  0
   13.0707   14.2380   22.4400 C   0  0  0  0  0  0  0  0  0  0  0  0
   10.8355   13.3530   22.2122 N   0  0  0  0  0  0  0  0  0  0  0  0
   10.0487   13.5153   23.3541 C   0  0  0  0  0  0  0  0  0  0  0  0
    9.9741   14.6305   23.8446 O   0  0  0  0  0  0  0  0  0  0  0  0
    9.2672   12.4353   23.9872 C   0  0  0  0  0  0  0  0  0  0  0  0
    9.5363   11.0900   23.7132 C   0  0  0  0  0  0  0  0  0  0  0  0
   10.4748   10.5953   22.8741 O   0  0  0  0  0  0  0  0  0  0  0  0
   10.2727    9.1687   22.9098 C   0  0  0  0  0  0  0  0  0  0  0  0
   11.4337    8.5273   23.2009 F   0  0  0  0  0  0  0  0  0  0  0  0
    9.8121    8.7599   21.7004 F   0  0  0  0  0  0  0  0  0  0  0  0
    9.2719    8.8541   23.8963 O   0  0  0  0  0  0  0  0  0  0  0  0
    8.8354   10.0667   24.3254 C   0  0  0  0  0  0  0  0  0  0  0  0
    7.8243   10.3446   25.2428 C   0  0  0  0  0  0  0  0  0  0  0  0
    7.5312   11.6810   25.5419 C   0  0  0  0  0  0  0  0  0  0  0  0
    8.2455   12.7197   24.9260 C   0  0  0  0  0  0  0  0  0  0  0  0
    7.8068   14.5267   25.3882 Br  0  0  0  0  0  0  0  0  0  0  0  0
   11.9841   14.4295   20.1227 C   0  0  0  0  0  0  0  0  0  0  0  0
   13.0937   14.9153   19.6184 N   0  0  0  0  0  0  0  0  0  0  0  0
   12.9136   14.9044   18.2209 O   0  0  0  0  0  0  0  0  0  0  0  0
   11.6827   14.3803   18.0071 C   0  0  0  0  0  0  0  0  0  0  0  0
   11.0632   14.1120   19.1230 N   0  0  0  0  0  0  0  0  0  0  0  0
  1  2  1  0
  2  3  1  0
  2  4  1  0
  4  5  1  0
  5  6  2  0
  5  7  1  0
  7  8  2  0
  8  9  1  0
  9 10  1  0
 10 11  1  0
 10 12  1  0
 10 13  1  0
 13 14  1  0
 14 15  2  0
 15 16  1  0
 16 17  2  0
 17 18  1  0
  2 19  1  0
 19 20  2  0
 20 21  1  0
 21 22  1  0
 22 23  2  0
 17  7  1  0
 23 19  1  0
 14  8  1  0
M  END
>  <cnnaffinity>  (5) 
-5.80538

>  <cnnaffinityIC50>  (5) 
1565.3807901707244 nanomolar

>  <smiles>  (5) 
CC(C)(NC(=O)C1=C2OC(F)(F)OC2=CC=C1Br)C1=NOC=N1

>  <origin>  (5) 
x0358-P2-elab.sdf

>  <ref_pdb>  (5) 
x0310

>  <butcher #BAD>  (5) 
8

>  <butcher #GOOD>  (5) 
15

>  <butcher #protein clash>  (5) 
6

>  <butcher #solvent space>  (5) 
2

>  <butcher #pocket>  (5) 
15

>  <butcher #P1>  (5) 
12

>  <butcher #P2>  (5) 
2

>  <butcher #P1'>  (5) 
1

>  <butcher #P2'>  (5) 
0

>  <butcher #P3>  (5) 
0

>  <butcher #P4>  (5) 
0

>  <butcher #P5>  (5) 
0

>  <butcher #P6>  (5) 
0

>  <ref_mols>  (5) 
A71x0351a

$$$$
Z2233384408
     RDKit          3D

 23 26  0  0  0  0  0  0  0  0999 V2000
    7.9517   19.0776   18.4416 N   0  0  0  0  0  0  0  0  0  0  0  0
    8.8396   18.0163   18.5094 C   0  0  0  0  0  0  0  0  0  0  0  0
    9.6694   17.6494   17.5707 N   0  0  0  0  0  0  0  0  0  0  0  0
   10.3626   16.5549   18.0514 N   0  0  0  0  0  0  0  0  0  0  0  0
    9.9576   16.3049   19.2611 C   0  0  0  0  0  0  0  0  0  0  0  0
   10.4096   15.1762   20.1465 C   0  0  0  0  0  0  0  0  0  0  0  0
   11.4551   15.5752   21.2202 C   0  0  0  0  0  0  0  0  0  0  0  0
   11.6562   14.5029   22.2998 C   0  0  0  0  0  0  0  0  0  0  0  0
   10.3857   13.9867   22.7966 N   0  0  0  0  0  0  0  0  0  0  0  0
   10.1851   13.7813   24.1359 C   0  0  0  0  0  0  0  0  0  0  0  0
   10.7074   14.4747   24.9934 O   0  0  0  0  0  0  0  0  0  0  0  0
    9.2493   12.6495   24.5097 C   0  0  0  0  0  0  0  0  0  0  0  0
    8.1621   12.8518   25.3747 C   0  0  0  0  0  0  0  0  0  0  0  0
    7.3299   11.7968   25.7441 C   0  0  0  0  0  0  0  0  0  0  0  0
    7.5530   10.4905   25.2822 C   0  0  0  0  0  0  0  0  0  0  0  0
    8.6361   10.2995   24.4597 C   0  0  0  0  0  0  0  0  0  0  0  0
    9.4593   11.3497   24.0808 C   0  0  0  0  0  0  0  0  0  0  0  0
   10.4167   10.8851   23.2172 O   0  0  0  0  0  0  0  0  0  0  0  0
   10.3152    9.4639   23.2761 C   0  0  0  0  0  0  0  0  0  0  0  0
    9.0551    9.1430   23.8504 O   0  0  0  0  0  0  0  0  0  0  0  0
    9.5582   13.4399   21.7424 C   0  0  0  0  0  0  0  0  0  0  0  0
    9.1711   14.5440   20.7807 C   0  0  0  0  0  0  0  0  0  0  0  0
    8.9665   17.2065   19.5964 N   0  0  0  0  0  0  0  0  0  0  0  0
  1  2  1  0
  2  3  2  0
  3  4  1  0
  4  5  2  0
  5  6  1  0
  6  7  1  0
  7  8  1  0
  8  9  1  0
  9 10  1  0
 10 11  2  0
 10 12  1  0
 12 13  2  0
 13 14  1  0
 14 15  2  0
 15 16  1  0
 16 17  2  0
 17 18  1  0
 18 19  1  0
 19 20  1  0
  9 21  1  0
 21 22  1  0
  5 23  1  0
 23  2  1  0
 22  6  1  0
 17 12  1  0
 20 16  1  0
M  END
>  <cnnaffinity>  (6) 
-5.78796

>  <cnnaffinityIC50>  (6) 
1629.446103260897 nanomolar

>  <smiles>  (6) 
NC1=NN=C(C2CCN(C(=O)C3=CC=CC4=C3OCO4)CC2)N1

>  <origin>  (6) 
x0358-P2-elab.sdf

>  <ref_pdb>  (6) 
x0310

>  <butcher #BAD>  (6) 
3

>  <butcher #GOOD>  (6) 
20

>  <butcher #protein clash>  (6) 
3

>  <butcher #solvent space>  (6) 
0

>  <butcher #pocket>  (6) 
20

>  <butcher #P1>  (6) 
14

>  <butcher #P2>  (6) 
6

>  <butcher #P1'>  (6) 
0

>  <butcher #P2'>  (6) 
0

>  <butcher #P3>  (6) 
0

>  <butcher #P4>  (6) 
0

>  <butcher #P5>  (6) 
0

>  <butcher #P6>  (6) 
0

>  <ref_mols>  (6) 
A71x0351a

$$$$
Z4046203212
     RDKit          3D

 23 26  0  0  0  0  0  0  0  0999 V2000
    9.8386   14.8421   24.4059 O   0  0  0  0  0  0  0  0  0  0  0  0
    9.8130   13.8231   23.7295 C   0  0  0  0  0  0  0  0  0  0  0  0
   10.4192   13.7221   22.5241 N   0  0  0  0  0  0  0  0  0  0  0  0
   11.1148   14.8688   21.9668 C   0  0  0  0  0  0  0  0  0  0  0  0
   11.5468   14.6262   20.5594 C   0  0  0  0  0  0  0  0  0  0  0  0
   12.7586   14.1479   20.3216 N   0  0  0  0  0  0  0  0  0  0  0  0
   12.8338   14.0652   18.9876 N   0  0  0  0  0  0  0  0  0  0  0  0
   11.7089   14.4789   18.3638 C   0  0  0  0  0  0  0  0  0  0  0  0
   10.8324   14.8626   19.3538 C   0  0  0  0  0  0  0  0  0  0  0  0
    9.4663   15.4169   19.1993 C   0  0  0  0  0  0  0  0  0  0  0  0
    9.2155   16.8453   19.5854 C   0  0  0  0  0  0  0  0  0  0  0  0
    9.2044   16.4492   18.1376 C   0  0  0  0  0  0  0  0  0  0  0  0
    9.0537   12.6199   24.1940 C   0  0  0  0  0  0  0  0  0  0  0  0
    9.3298   11.3269   23.8102 C   0  0  0  0  0  0  0  0  0  0  0  0
   10.2475   10.8849   22.8868 O   0  0  0  0  0  0  0  0  0  0  0  0
   10.2471    9.5015   22.9291 C   0  0  0  0  0  0  0  0  0  0  0  0
   11.4272    9.0365   23.3682 F   0  0  0  0  0  0  0  0  0  0  0  0
   10.0751    8.9904   21.7073 F   0  0  0  0  0  0  0  0  0  0  0  0
    9.2245    9.1009   23.7670 O   0  0  0  0  0  0  0  0  0  0  0  0
    8.6763   10.2340   24.3406 C   0  0  0  0  0  0  0  0  0  0  0  0
    7.6607   10.3655   25.2578 C   0  0  0  0  0  0  0  0  0  0  0  0
    7.3368   11.6821   25.6361 C   0  0  0  0  0  0  0  0  0  0  0  0
    8.0333   12.7765   25.1426 C   0  0  0  0  0  0  0  0  0  0  0  0
  1  2  2  0
  2  3  1  0
  3  4  1  0
  4  5  1  0
  5  6  2  0
  6  7  1  0
  7  8  1  0
  8  9  2  0
  9 10  1  0
 10 11  1  0
 11 12  1  0
  2 13  1  0
 13 14  2  0
 14 15  1  0
 15 16  1  0
 16 17  1  0
 16 18  1  0
 16 19  1  0
 19 20  1  0
 20 21  2  0
 21 22  1  0
 22 23  2  0
  9  5  1  0
 12 10  1  0
 23 13  1  0
 20 14  1  0
M  END
>  <cnnaffinity>  (7) 
-5.77983

>  <cnnaffinityIC50>  (7) 
1660.2366624116466 nanomolar

>  <smiles>  (7) 
O=C(NCC1=NNC=C1C1CC1)C1=C2OC(F)(F)OC2=CC=C1

>  <origin>  (7) 
x0358-P2-elab.sdf

>  <ref_pdb>  (7) 
x0310

>  <butcher #BAD>  (7) 
5

>  <butcher #GOOD>  (7) 
18

>  <butcher #protein clash>  (7) 
3

>  <butcher #solvent space>  (7) 
2

>  <butcher #pocket>  (7) 
18

>  <butcher #P1>  (7) 
12

>  <butcher #P2>  (7) 
6

>  <butcher #P1'>  (7) 
0

>  <butcher #P2'>  (7) 
0

>  <butcher #P3>  (7) 
0

>  <butcher #P4>  (7) 
0

>  <butcher #P5>  (7) 
0

>  <butcher #P6>  (7) 
0

>  <ref_mols>  (7) 
A71x0351a

$$$$
Z5506559082
     RDKit          3D

 23 25  0  0  0  0  0  0  0  0999 V2000
   11.4953   14.7499   18.0385 C   0  0  0  0  0  0  0  0  0  0  0  0
   11.2300   14.8363   19.4733 N   0  0  0  0  0  0  0  0  0  0  0  0
    9.9679   15.4090   19.9226 C   0  0  0  0  0  0  0  0  0  0  0  0
   12.2000   14.4546   20.4043 C   0  0  0  0  0  0  0  0  0  0  0  0
   13.3335   14.2632   19.9783 O   0  0  0  0  0  0  0  0  0  0  0  0
   11.9184   14.3839   21.9519 C   0  0  0  0  0  0  0  0  0  0  0  0
   10.8278   13.5168   22.4729 N   0  0  0  0  0  0  0  0  0  0  0  0
   10.1402   13.7196   23.6679 C   0  0  0  0  0  0  0  0  0  0  0  0
   10.2291   14.7780   24.2656 O   0  0  0  0  0  0  0  0  0  0  0  0
    9.2914   12.6681   24.2301 C   0  0  0  0  0  0  0  0  0  0  0  0
    9.5314   11.3493   23.8636 C   0  0  0  0  0  0  0  0  0  0  0  0
   10.5023   10.9259   23.0234 O   0  0  0  0  0  0  0  0  0  0  0  0
   10.3192    9.5016   22.9618 C   0  0  0  0  0  0  0  0  0  0  0  0
   11.4596    8.8747   23.3478 F   0  0  0  0  0  0  0  0  0  0  0  0
   10.0133    9.1547   21.6849 F   0  0  0  0  0  0  0  0  0  0  0  0
    9.2269    9.1272   23.8291 O   0  0  0  0  0  0  0  0  0  0  0  0
    8.7792   10.3017   24.3457 C   0  0  0  0  0  0  0  0  0  0  0  0
    7.7270   10.5508   25.2304 C   0  0  0  0  0  0  0  0  0  0  0  0
    7.4568   11.8732   25.6198 C   0  0  0  0  0  0  0  0  0  0  0  0
    8.2393   12.9315   25.1325 C   0  0  0  0  0  0  0  0  0  0  0  0
    7.8528   14.7212   25.6942 Br  0  0  0  0  0  0  0  0  0  0  0  0
   12.2580   15.6722   22.7078 C   0  0  0  0  0  0  0  0  0  0  0  0
   13.0810   14.4177   22.9453 C   0  0  0  0  0  0  0  0  0  0  0  0
  1  2  1  0
  2  3  1  0
  2  4  1  0
  4  5  2  0
  4  6  1  0
  6  7  1  0
  7  8  1  0
  8  9  2  0
  8 10  1  0
 10 11  2  0
 11 12  1  0
 12 13  1  0
 13 14  1  0
 13 15  1  0
 13 16  1  0
 16 17  1  0
 17 18  2  0
 18 19  1  0
 19 20  2  0
 20 21  1  0
  6 22  1  0
 22 23  1  0
 23  6  1  0
 20 10  1  0
 17 11  1  0
M  END
>  <cnnaffinity>  (8) 
-5.75266

>  <cnnaffinityIC50>  (8) 
1767.4209558314603 nanomolar

>  <smiles>  (8) 
CN(C)C(=O)C1(NC(=O)C2=C3OC(F)(F)OC3=CC=C2Br)CC1

>  <origin>  (8) 
x0358-P2-elab.sdf

>  <ref_pdb>  (8) 
x0310

>  <butcher #BAD>  (8) 
5

>  <butcher #GOOD>  (8) 
18

>  <butcher #protein clash>  (8) 
4

>  <butcher #solvent space>  (8) 
1

>  <butcher #pocket>  (8) 
18

>  <butcher #P1>  (8) 
14

>  <butcher #P2>  (8) 
2

>  <butcher #P1'>  (8) 
2

>  <butcher #P2'>  (8) 
0

>  <butcher #P3>  (8) 
0

>  <butcher #P4>  (8) 
0

>  <butcher #P5>  (8) 
0

>  <butcher #P6>  (8) 
0

>  <ref_mols>  (8) 
A71x0351a

$$$$
Z5604043259
     RDKit          3D

 23 25  0  0  0  0  0  0  0  0999 V2000
   12.4055   14.7716   22.3807 C   0  0  0  0  0  0  0  0  0  0  0  0
   11.0181   14.8265   21.7399 C   0  0  2  0  0  0  0  0  0  0  0  0
   10.2344   13.7157   22.3136 N   0  0  0  0  0  0  0  0  0  0  0  0
    9.7398   13.7536   23.6102 C   0  0  0  0  0  0  0  0  0  0  0  0
    9.8573   14.7793   24.2638 O   0  0  0  0  0  0  0  0  0  0  0  0
    9.0508   12.6123   24.1992 C   0  0  0  0  0  0  0  0  0  0  0  0
    9.3908   11.3185   23.8115 C   0  0  0  0  0  0  0  0  0  0  0  0
   10.3254   10.9528   22.9001 O   0  0  0  0  0  0  0  0  0  0  0  0
   10.3005    9.5136   22.9278 C   0  0  0  0  0  0  0  0  0  0  0  0
   11.5086    9.0490   23.3382 F   0  0  0  0  0  0  0  0  0  0  0  0
   10.0241    9.0365   21.6883 F   0  0  0  0  0  0  0  0  0  0  0  0
    9.2678    9.0734   23.8337 O   0  0  0  0  0  0  0  0  0  0  0  0
    8.7668   10.2194   24.3607 C   0  0  0  0  0  0  0  0  0  0  0  0
    7.7566   10.3848   25.3104 C   0  0  0  0  0  0  0  0  0  0  0  0
    7.3817   11.6790   25.6992 C   0  0  0  0  0  0  0  0  0  0  0  0
    8.0324   12.7917   25.1565 C   0  0  0  0  0  0  0  0  0  0  0  0
    7.4749   14.5476   25.6809 Br  0  0  0  0  0  0  0  0  0  0  0  0
   11.0892   14.8662   20.2095 C   0  0  0  0  0  0  0  0  0  0  0  0
   12.0179   14.3444   19.4443 N   0  0  0  0  0  0  0  0  0  0  0  0
   11.6317   14.6900   18.1579 C   0  0  0  0  0  0  0  0  0  0  0  0
   10.5485   15.4214   18.1126 N   0  0  0  0  0  0  0  0  0  0  0  0
   10.1858   15.5436   19.3998 N   0  0  0  0  0  0  0  0  0  0  0  0
    9.1303   16.4728   19.8158 C   0  0  0  0  0  0  0  0  0  0  0  0
  2  1  1  1
  2  3  1  0
  3  4  1  0
  4  5  2  0
  4  6  1  0
  6  7  2  0
  7  8  1  0
  8  9  1  0
  9 10  1  0
  9 11  1  0
  9 12  1  0
 12 13  1  0
 13 14  2  0
 14 15  1  0
 15 16  2  0
 16 17  1  0
  2 18  1  0
 18 19  2  0
 19 20  1  0
 20 21  2  0
 21 22  1  0
 22 23  1  0
 16  6  1  0
 22 18  1  0
 13  7  1  0
M  END
>  <cnnaffinity>  (9) 
-5.75159

>  <cnnaffinityIC50>  (9) 
1771.7808362348512 nanomolar

>  <smiles>  (9) 
C[C@H](NC(=O)C1=C2OC(F)(F)OC2=CC=C1Br)C1=NC=NN1C

>  <origin>  (9) 
x0358-P2-elab.sdf

>  <ref_pdb>  (9) 
x0310

>  <butcher #BAD>  (9) 
5

>  <butcher #GOOD>  (9) 
18

>  <butcher #protein clash>  (9) 
4

>  <butcher #solvent space>  (9) 
1

>  <butcher #pocket>  (9) 
18

>  <butcher #P1>  (9) 
13

>  <butcher #P2>  (9) 
4

>  <butcher #P1'>  (9) 
1

>  <butcher #P2'>  (9) 
0

>  <butcher #P3>  (9) 
0

>  <butcher #P4>  (9) 
0

>  <butcher #P5>  (9) 
0

>  <butcher #P6>  (9) 
0

>  <ref_mols>  (9) 
A71x0351a

$$$$
Z2635938908
     RDKit          3D

 23 24  0  0  0  0  0  0  0  0999 V2000
    9.3111   14.9384   20.0858 C   0  0  0  0  0  0  0  0  0  0  0  0
   10.3620   15.4780   21.0409 C   0  0  0  0  0  0  0  0  0  0  0  0
   11.3316   14.4695   21.6602 C   0  0  1  0  0  0  0  0  0  0  0  0
   10.5939   13.4208   22.3588 N   0  0  0  0  0  0  0  0  0  0  0  0
    9.7185   13.6155   23.3715 C   0  0  0  0  0  0  0  0  0  0  0  0
    9.4035   14.7179   23.8022 O   0  0  0  0  0  0  0  0  0  0  0  0
    9.1172   12.3828   23.9594 C   0  0  0  0  0  0  0  0  0  0  0  0
    8.0919   12.5303   24.9044 C   0  0  0  0  0  0  0  0  0  0  0  0
    7.4797   11.4296   25.4848 C   0  0  0  0  0  0  0  0  0  0  0  0
    7.8603   10.1197   25.1500 C   0  0  0  0  0  0  0  0  0  0  0  0
    8.8592    9.9918   24.2201 C   0  0  0  0  0  0  0  0  0  0  0  0
    9.4713   11.0866   23.6437 C   0  0  0  0  0  0  0  0  0  0  0  0
   10.4261   10.6228   22.7635 O   0  0  0  0  0  0  0  0  0  0  0  0
   10.3172    9.2447   22.7070 C   0  0  0  0  0  0  0  0  0  0  0  0
    9.8746    8.8582   21.4965 F   0  0  0  0  0  0  0  0  0  0  0  0
   11.5028    8.6601   22.8779 F   0  0  0  0  0  0  0  0  0  0  0  0
    9.4283    8.8507   23.6853 O   0  0  0  0  0  0  0  0  0  0  0  0
   12.1925   13.6803   20.6635 C   0  0  0  0  0  0  0  0  0  0  0  0
   12.3721   14.0992   19.3812 N   0  0  0  0  0  0  0  0  0  0  0  0
   12.7436   12.6829   21.1004 O   0  0  0  0  0  0  0  0  0  0  0  0
   12.3454   15.1961   22.6063 C   0  0  0  0  0  0  0  0  0  0  0  0
   13.4305   15.8976   21.7900 C   0  0  0  0  0  0  0  0  0  0  0  0
   13.0080   14.2546   23.6185 C   0  0  0  0  0  0  0  0  0  0  0  0
  1  2  1  0
  3  2  1  6
  3  4  1  0
  4  5  1  0
  5  6  2  0
  5  7  1  0
  7  8  2  0
  8  9  1  0
  9 10  2  0
 10 11  1  0
 11 12  2  0
 12 13  1  0
 13 14  1  0
 14 15  1  0
 14 16  1  0
 14 17  1  0
  3 18  1  0
 18 19  1  0
 18 20  2  0
  3 21  1  0
 21 22  1  0
 21 23  1  0
 12  7  1  0
 17 11  1  0
M  END
>  <cnnaffinity>  (10) 
-5.74632

>  <cnnaffinityIC50>  (10) 
1793.4117052998124 nanomolar

>  <smiles>  (10) 
CCC(NC(=O)C1=CC=CC2=C1OC(F)(F)O2)(C(N)=O)C(C)C

>  <origin>  (10) 
x0358-P2-elab.sdf

>  <ref_pdb>  (10) 
x0310

>  <butcher #BAD>  (10) 
5

>  <butcher #GOOD>  (10) 
18

>  <butcher #protein clash>  (10) 
4

>  <butcher #solvent space>  (10) 
1

>  <butcher #pocket>  (10) 
18

>  <butcher #P1>  (10) 
13

>  <butcher #P2>  (10) 
2

>  <butcher #P1'>  (10) 
3

>  <butcher #P2'>  (10) 
0

>  <butcher #P3>  (10) 
0

>  <butcher #P4>  (10) 
0

>  <butcher #P5>  (10) 
0

>  <butcher #P6>  (10) 
0

>  <ref_mols>  (10) 
A71x0351a

$$$$
Z5339719725
     RDKit          3D

 22 25  0  0  0  0  0  0  0  0999 V2000
    9.8745   14.6017   23.1062 O   0  0  0  0  0  0  0  0  0  0  0  0
    9.8481   13.4436   22.7131 C   0  0  0  0  0  0  0  0  0  0  0  0
   10.5166   13.1409   21.5387 N   0  0  0  0  0  0  0  0  0  0  0  0
   11.3312   14.1123   20.7802 C   0  0  0  0  0  0  0  0  0  0  0  0
   10.5239   15.1311   20.0037 C   0  0  0  0  0  0  0  0  0  0  0  0
    9.8231   16.0024   20.6623 N   0  0  0  0  0  0  0  0  0  0  0  0
    9.4343   17.0727   19.8177 O   0  0  0  0  0  0  0  0  0  0  0  0
    9.7051   16.6845   18.4828 C   0  0  0  0  0  0  0  0  0  0  0  0
    8.4095   16.5086   17.7402 C   0  0  0  0  0  0  0  0  0  0  0  0
    8.6836   17.6520   16.8335 C   0  0  0  0  0  0  0  0  0  0  0  0
   10.0241   17.7876   17.4863 C   0  0  0  0  0  0  0  0  0  0  0  0
   10.6169   15.4575   18.5462 C   0  0  0  0  0  0  0  0  0  0  0  0
    9.1349   12.4274   23.5028 C   0  0  0  0  0  0  0  0  0  0  0  0
    8.1875   12.7651   24.4977 C   0  0  0  0  0  0  0  0  0  0  0  0
    7.6019   11.7757   25.3046 C   0  0  0  0  0  0  0  0  0  0  0  0
    6.3461   12.2573   26.6642 Br  0  0  0  0  0  0  0  0  0  0  0  0
    7.9603   10.4337   25.1290 C   0  0  0  0  0  0  0  0  0  0  0  0
    8.8760   10.0985   24.1307 C   0  0  0  0  0  0  0  0  0  0  0  0
    9.4392   11.0767   23.3339 C   0  0  0  0  0  0  0  0  0  0  0  0
   10.3220   10.5381   22.4595 O   0  0  0  0  0  0  0  0  0  0  0  0
   10.3916    9.1483   22.8322 C   0  0  0  0  0  0  0  0  0  0  0  0
    9.3635    8.8741   23.8042 O   0  0  0  0  0  0  0  0  0  0  0  0
  1  2  2  0
  2  3  1  0
  3  4  1  0
  4  5  1  0
  5  6  2  0
  6  7  1  0
  7  8  1  0
  8  9  1  0
  9 10  1  0
 10 11  1  0
  8 12  1  0
  2 13  1  0
 13 14  2  0
 14 15  1  0
 15 16  1  0
 15 17  2  0
 17 18  1  0
 18 19  2  0
 19 20  1  0
 20 21  1  0
 21 22  1  0
 12  5  1  0
 19 13  1  0
 11  8  1  0
 22 18  1  0
M  END
>  <cnnaffinity>  (11) 
-5.74602

>  <cnnaffinityIC50>  (11) 
1794.6509781976968 nanomolar

>  <smiles>  (11) 
O=C(NCC1=NOC2(CCC2)C1)C1=CC(Br)=CC2=C1OCO2

>  <origin>  (11) 
x0358-P2-elab.sdf

>  <ref_pdb>  (11) 
x0310

>  <butcher #BAD>  (11) 
4

>  <butcher #GOOD>  (11) 
18

>  <butcher #protein clash>  (11) 
4

>  <butcher #solvent space>  (11) 
0

>  <butcher #pocket>  (11) 
18

>  <butcher #P1>  (11) 
13

>  <butcher #P2>  (11) 
5

>  <butcher #P1'>  (11) 
0

>  <butcher #P2'>  (11) 
0

>  <butcher #P3>  (11) 
0

>  <butcher #P4>  (11) 
0

>  <butcher #P5>  (11) 
0

>  <butcher #P6>  (11) 
0

>  <ref_mols>  (11) 
A71x0351a

$$$$
Z5264898266
     RDKit          3D

 23 25  0  0  0  0  0  0  0  0999 V2000
   14.4367   13.4314   24.4224 C   0  0  0  0  0  0  0  0  0  0  0  0
   13.3836   13.2647   23.3267 C   0  0  0  0  0  0  0  0  0  0  0  0
   12.7081   14.5867   22.9567 C   0  0  0  0  0  0  0  0  0  0  0  0
   11.5583   14.4591   21.9475 C   0  0  1  0  0  0  0  0  0  0  0  0
   10.5973   13.4344   22.3757 N   0  0  0  0  0  0  0  0  0  0  0  0
    9.8931   13.5582   23.5431 C   0  0  0  0  0  0  0  0  0  0  0  0
    9.7996   14.6016   24.1797 O   0  0  0  0  0  0  0  0  0  0  0  0
    9.1860   12.3465   24.0384 C   0  0  0  0  0  0  0  0  0  0  0  0
    8.1970   12.4890   25.0262 C   0  0  0  0  0  0  0  0  0  0  0  0
    7.5168   11.3875   25.5273 C   0  0  0  0  0  0  0  0  0  0  0  0
    7.8034   10.0894   25.0746 C   0  0  0  0  0  0  0  0  0  0  0  0
    8.7942    9.9684   24.1397 C   0  0  0  0  0  0  0  0  0  0  0  0
    9.4605   11.0630   23.6309 C   0  0  0  0  0  0  0  0  0  0  0  0
   10.4057   10.6178   22.7353 O   0  0  0  0  0  0  0  0  0  0  0  0
   10.2798    9.2425   22.6421 C   0  0  0  0  0  0  0  0  0  0  0  0
    9.9274    8.8849   21.3975 F   0  0  0  0  0  0  0  0  0  0  0  0
   11.4452    8.6410   22.8954 F   0  0  0  0  0  0  0  0  0  0  0  0
    9.3175    8.8363   23.5452 O   0  0  0  0  0  0  0  0  0  0  0  0
   10.8169   15.7774   21.7266 C   0  0  0  0  0  0  0  0  0  0  0  0
   10.2721   15.7058   20.3050 C   0  0  0  0  0  0  0  0  0  0  0  0
   11.3258   14.9569   19.6546 N   0  0  0  0  0  0  0  0  0  0  0  0
   12.0077   14.1346   20.5029 C   0  0  0  0  0  0  0  0  0  0  0  0
   12.8186   13.3081   20.1470 O   0  0  0  0  0  0  0  0  0  0  0  0
  1  2  1  0
  2  3  1  0
  4  3  1  1
  4  5  1  0
  5  6  1  0
  6  7  2  0
  6  8  1  0
  8  9  2  0
  9 10  1  0
 10 11  2  0
 11 12  1  0
 12 13  2  0
 13 14  1  0
 14 15  1  0
 15 16  1  0
 15 17  1  0
 15 18  1  0
  4 19  1  0
 19 20  1  0
 20 21  1  0
 21 22  1  0
 22 23  2  0
 22  4  1  0
 13  8  1  0
 18 12  1  0
M  END
>  <cnnaffinity>  (12) 
-5.74506

>  <cnnaffinityIC50>  (12) 
1798.6224090941696 nanomolar

>  <smiles>  (12) 
CCCC1(NC(=O)C2=CC=CC3=C2OC(F)(F)O3)CCNC1=O

>  <origin>  (12) 
x0358-P2-elab.sdf

>  <ref_pdb>  (12) 
x0310

>  <butcher #BAD>  (12) 
6

>  <butcher #GOOD>  (12) 
17

>  <butcher #protein clash>  (12) 
5

>  <butcher #solvent space>  (12) 
1

>  <butcher #pocket>  (12) 
17

>  <butcher #P1>  (12) 
13

>  <butcher #P2>  (12) 
2

>  <butcher #P1'>  (12) 
2

>  <butcher #P2'>  (12) 
0

>  <butcher #P3>  (12) 
0

>  <butcher #P4>  (12) 
0

>  <butcher #P5>  (12) 
0

>  <butcher #P6>  (12) 
0

>  <ref_mols>  (12) 
A71x0351a

$$$$
Z4303140447
     RDKit          3D

 23 26  0  0  0  0  0  0  0  0999 V2000
   11.0271   14.3580   25.0474 O   0  0  0  0  0  0  0  0  0  0  0  0
   10.4365   13.7002   24.2029 C   0  0  0  0  0  0  0  0  0  0  0  0
    9.4437   12.7073   24.6088 C   0  0  0  0  0  0  0  0  0  0  0  0
    9.5902   11.4124   24.1202 C   0  0  0  0  0  0  0  0  0  0  0  0
   10.5686   10.9874   23.2873 O   0  0  0  0  0  0  0  0  0  0  0  0
   10.3201    9.5804   23.1312 C   0  0  0  0  0  0  0  0  0  0  0  0
    9.0877    9.2515   23.8107 O   0  0  0  0  0  0  0  0  0  0  0  0
    8.7129   10.4021   24.4371 C   0  0  0  0  0  0  0  0  0  0  0  0
    7.6348   10.6656   25.2885 C   0  0  0  0  0  0  0  0  0  0  0  0
    7.4478   11.9752   25.7749 C   0  0  0  0  0  0  0  0  0  0  0  0
    8.3398   12.9994   25.4219 C   0  0  0  0  0  0  0  0  0  0  0  0
    8.0242   14.7914   26.0012 Br  0  0  0  0  0  0  0  0  0  0  0  0
   10.7492   13.8163   22.8547 N   0  0  0  0  0  0  0  0  0  0  0  0
    9.8781   13.2009   21.8740 C   0  0  0  0  0  0  0  0  0  0  0  0
    9.3998   14.2433   20.8593 C   0  0  0  0  0  0  0  0  0  0  0  0
   10.5225   15.1329   20.2876 C   0  0  0  0  0  0  0  0  0  0  0  0
    9.8599   16.2484   19.4908 C   0  0  0  0  0  0  0  0  0  0  0  0
   10.1169   16.5919   18.2526 N   0  0  0  0  0  0  0  0  0  0  0  0
    9.2230   17.5653   17.8563 N   0  0  0  0  0  0  0  0  0  0  0  0
    8.4241   17.8117   18.8634 C   0  0  0  0  0  0  0  0  0  0  0  0
    8.7994   17.0105   19.9096 N   0  0  0  0  0  0  0  0  0  0  0  0
   11.4574   15.6360   21.4241 C   0  0  0  0  0  0  0  0  0  0  0  0
   11.9269   14.5144   22.3507 C   0  0  0  0  0  0  0  0  0  0  0  0
  1  2  2  0
  2  3  1  0
  3  4  2  0
  4  5  1  0
  5  6  1  0
  6  7  1  0
  7  8  1  0
  8  9  2  0
  9 10  1  0
 10 11  2  0
 11 12  1  0
  2 13  1  0
 13 14  1  0
 14 15  1  0
 15 16  1  0
 16 17  1  0
 17 18  2  0
 18 19  1  0
 19 20  2  0
 20 21  1  0
 16 22  1  0
 22 23  1  0
 11  3  1  0
 23 13  1  0
  8  4  1  0
 21 17  1  0
M  END
>  <cnnaffinity>  (13) 
-5.72953

>  <cnnaffinityIC50>  (13) 
1864.103406103479 nanomolar

>  <smiles>  (13) 
O=C(C1=C2OCOC2=CC=C1Br)N1CCC(C2=NN=CN2)CC1

>  <origin>  (13) 
x0358-P2-elab.sdf

>  <ref_pdb>  (13) 
x0310

>  <butcher #BAD>  (13) 
1

>  <butcher #GOOD>  (13) 
22

>  <butcher #protein clash>  (13) 
1

>  <butcher #solvent space>  (13) 
0

>  <butcher #pocket>  (13) 
22

>  <butcher #P1>  (13) 
13

>  <butcher #P2>  (13) 
7

>  <butcher #P1'>  (13) 
2

>  <butcher #P2'>  (13) 
0

>  <butcher #P3>  (13) 
0

>  <butcher #P4>  (13) 
0

>  <butcher #P5>  (13) 
0

>  <butcher #P6>  (13) 
0

>  <ref_mols>  (13) 
A71x0351a

$$$$
Z3368808819
     RDKit          3D

 23 27  0  0  0  0  0  0  0  0999 V2000
   17.8703   14.5909   25.2920 N   0  0  0  0  0  0  0  0  0  0  0  0
   16.8915   13.9744   25.2946 C   0  0  0  0  0  0  0  0  0  0  0  0
   15.7898   13.0443   25.3719 C   0  0  1  0  0  0  0  0  0  0  0  0
   14.3956   13.5325   25.1717 C   0  0  0  0  0  0  0  0  0  0  0  0
   13.4353   12.9658   24.4873 N   0  0  0  0  0  0  0  0  0  0  0  0
   12.4185   13.8891   24.5791 C   0  0  0  0  0  0  0  0  0  0  0  0
   11.0965   13.8332   23.8430 C   0  0  0  0  0  0  0  0  0  0  0  0
   10.0544   12.8123   24.2568 C   0  0  0  0  0  0  0  0  0  0  0  0
    8.9309   13.1731   25.0210 C   0  0  0  0  0  0  0  0  0  0  0  0
    7.9878   12.2369   25.4323 C   0  0  0  0  0  0  0  0  0  0  0  0
    8.0878   10.8868   25.0600 C   0  0  0  0  0  0  0  0  0  0  0  0
    9.1563   10.5550   24.2598 C   0  0  0  0  0  0  0  0  0  0  0  0
   10.0870   11.4964   23.8365 C   0  0  0  0  0  0  0  0  0  0  0  0
   10.9294   10.9102   22.9231 O   0  0  0  0  0  0  0  0  0  0  0  0
   10.7314    9.5163   23.1120 C   0  0  0  0  0  0  0  0  0  0  0  0
    9.4434    9.3400   23.6881 O   0  0  0  0  0  0  0  0  0  0  0  0
   12.7244   14.9415   25.2888 N   0  0  0  0  0  0  0  0  0  0  0  0
   14.0340   14.7042   25.6849 O   0  0  0  0  0  0  0  0  0  0  0  0
   16.0147   11.6289   24.8926 C   0  0  0  0  0  0  0  0  0  0  0  0
   16.1002   11.9155   26.3541 C   0  0  0  0  0  0  0  0  0  0  0  0
   15.2445   11.7664   27.5952 C   0  0  0  0  0  0  0  0  0  0  0  0
   16.5208   11.6628   28.4527 C   0  0  0  0  0  0  0  0  0  0  0  0
   17.3796   11.7228   27.1701 C   0  0  0  0  0  0  0  0  0  0  0  0
  1  2  3  0
  3  2  1  6
  3  4  1  0
  4  5  2  0
  5  6  1  0
  6  7  1  0
  7  8  1  0
  8  9  2  0
  9 10  1  0
 10 11  2  0
 11 12  1  0
 12 13  2  0
 13 14  1  0
 14 15  1  0
 15 16  1  0
  6 17  2  0
 17 18  1  0
  3 19  1  0
 19 20  1  0
 20 21  1  0
 21 22  1  0
 22 23  1  0
 20  3  1  0
 18  4  1  0
 23 20  1  0
 13  8  1  0
 16 12  1  0
M  END
>  <cnnaffinity>  (14) 
-5.72617

>  <cnnaffinityIC50>  (14) 
1878.5813219926533 nanomolar

>  <smiles>  (14) 
N#CC1(C2=NC(CC3=CC=CC4=C3OCO4)=NO2)CC12CCC2

>  <origin>  (14) 
x0358-P2-elab.sdf

>  <ref_pdb>  (14) 
x0310

>  <butcher #BAD>  (14) 
2

>  <butcher #GOOD>  (14) 
21

>  <butcher #protein clash>  (14) 
2

>  <butcher #solvent space>  (14) 
0

>  <butcher #pocket>  (14) 
21

>  <butcher #P1>  (14) 
10

>  <butcher #P2>  (14) 
0

>  <butcher #P1'>  (14) 
5

>  <butcher #P2'>  (14) 
6

>  <butcher #P3>  (14) 
0

>  <butcher #P4>  (14) 
0

>  <butcher #P5>  (14) 
0

>  <butcher #P6>  (14) 
0

>  <ref_mols>  (14) 
A71x0351a

$$$$
Z3352011666
     RDKit          3D

 23 25  0  0  0  0  0  0  0  0999 V2000
   10.0296   16.1704   19.6371 C   0  0  0  0  0  0  0  0  0  0  0  0
   11.0382   15.3028   19.0572 N   0  0  0  0  0  0  0  0  0  0  0  0
   12.3446   14.7962   19.9248 S   0  0  0  0  0  6  0  0  0  0  0  0
   13.0864   15.9623   20.3691 O   0  0  0  0  0  0  0  0  0  0  0  0
   12.9341   13.7666   19.0950 O   0  0  0  0  0  0  0  0  0  0  0  0
   11.7477   13.9974   21.4024 C   0  0  0  0  0  0  0  0  0  0  0  0
   11.5929   14.9299   22.6144 C   0  0  2  0  0  0  0  0  0  0  0  0
   12.9142   15.2237   23.3379 C   0  0  0  0  0  0  0  0  0  0  0  0
   13.0660   14.0469   24.2998 C   0  0  0  0  0  0  0  0  0  0  0  0
   11.6294   13.7877   24.7613 C   0  0  0  0  0  0  0  0  0  0  0  0
   10.8166   14.2477   23.6425 N   0  0  0  0  0  0  0  0  0  0  0  0
    9.5064   13.9710   23.4213 C   0  0  0  0  0  0  0  0  0  0  0  0
    8.8483   14.5510   22.5705 O   0  0  0  0  0  0  0  0  0  0  0  0
    8.9276   12.8377   24.2386 C   0  0  0  0  0  0  0  0  0  0  0  0
    9.3412   11.5466   23.9739 C   0  0  0  0  0  0  0  0  0  0  0  0
   10.3511   11.1601   23.1383 O   0  0  0  0  0  0  0  0  0  0  0  0
   10.4321    9.7397   23.2566 C   0  0  0  0  0  0  0  0  0  0  0  0
    9.2958    9.2925   23.9874 O   0  0  0  0  0  0  0  0  0  0  0  0
    8.7232   10.4239   24.5036 C   0  0  0  0  0  0  0  0  0  0  0  0
    7.6879   10.5381   25.3998 C   0  0  0  0  0  0  0  0  0  0  0  0
    7.3003   11.8363   25.7630 C   0  0  0  0  0  0  0  0  0  0  0  0
    7.9111   12.9532   25.1957 C   0  0  0  0  0  0  0  0  0  0  0  0
    7.4168   14.5356   25.7242 Cl  0  0  0  0  0  0  0  0  0  0  0  0
  1  2  1  0
  2  3  1  0
  3  4  2  0
  3  5  2  0
  3  6  1  0
  7  6  1  6
  7  8  1  0
  8  9  1  0
  9 10  1  0
 10 11  1  0
 11 12  1  0
 12 13  2  0
 12 14  1  0
 14 15  2  0
 15 16  1  0
 16 17  1  0
 17 18  1  0
 18 19  1  0
 19 20  2  0
 20 21  1  0
 21 22  2  0
 22 23  1  0
 11  7  1  0
 22 14  1  0
 19 15  1  0
M  END
>  <cnnaffinity>  (15) 
-5.72323

>  <cnnaffinityIC50>  (15) 
1891.3417090636938 nanomolar

>  <smiles>  (15) 
CNS(=O)(=O)CC1CCCN1C(=O)C1=C2OCOC2=CC=C1Cl

>  <origin>  (15) 
x0358-P2-elab.sdf

>  <ref_pdb>  (15) 
x0310

>  <butcher #BAD>  (15) 
3

>  <butcher #GOOD>  (15) 
20

>  <butcher #protein clash>  (15) 
2

>  <butcher #solvent space>  (15) 
1

>  <butcher #pocket>  (15) 
20

>  <butcher #P1>  (15) 
14

>  <butcher #P2>  (15) 
2

>  <butcher #P1'>  (15) 
4

>  <butcher #P2'>  (15) 
0

>  <butcher #P3>  (15) 
0

>  <butcher #P4>  (15) 
0

>  <butcher #P5>  (15) 
0

>  <butcher #P6>  (15) 
0

>  <ref_mols>  (15) 
A71x0351a

$$$$
Z4396390663
     RDKit          3D

 23 26  0  0  0  0  0  0  0  0999 V2000
   10.0785   14.6307   24.8507 O   0  0  0  0  0  0  0  0  0  0  0  0
    9.7814   13.8801   23.9424 C   0  0  0  0  0  0  0  0  0  0  0  0
    8.8698   12.7007   24.1905 C   0  0  0  0  0  0  0  0  0  0  0  0
    9.2172   11.4220   23.7828 C   0  0  0  0  0  0  0  0  0  0  0  0
   10.2311   11.0583   22.9432 O   0  0  0  0  0  0  0  0  0  0  0  0
   10.3303    9.6421   23.0667 C   0  0  0  0  0  0  0  0  0  0  0  0
    9.1218    9.1740   23.6493 O   0  0  0  0  0  0  0  0  0  0  0  0
    8.5484   10.2853   24.2113 C   0  0  0  0  0  0  0  0  0  0  0  0
    7.4702   10.3632   25.0551 C   0  0  0  0  0  0  0  0  0  0  0  0
    7.0590   11.6418   25.4506 C   0  0  0  0  0  0  0  0  0  0  0  0
    7.7344   12.7762   25.0148 C   0  0  0  0  0  0  0  0  0  0  0  0
    7.1166   14.3237   25.5038 Cl  0  0  0  0  0  0  0  0  0  0  0  0
   10.2635   14.0202   22.6588 N   0  0  0  0  0  0  0  0  0  0  0  0
    9.5115   13.7360   21.4541 C   0  0  0  0  0  0  0  0  0  0  0  0
    9.3769   14.9901   20.5942 C   0  0  0  0  0  0  0  0  0  0  0  0
   10.7601   15.5542   20.2768 C   0  0  0  0  0  0  0  0  0  0  0  0
   11.6109   15.7454   21.5363 C   0  0  0  0  0  0  0  0  0  0  0  0
   11.6381   14.4487   22.3528 C   0  0  1  0  0  0  0  0  0  0  0  0
   12.5336   14.5350   23.5543 C   0  0  0  0  0  0  0  0  0  0  0  0
   12.8092   15.6479   24.2052 N   0  0  0  0  0  0  0  0  0  0  0  0
   13.6201   15.2021   25.1482 N   0  0  0  0  0  0  0  0  0  0  0  0
   13.8571   13.9085   25.1043 N   0  0  0  0  0  0  0  0  0  0  0  0
   13.1712   13.4638   24.0871 N   0  0  0  0  0  0  0  0  0  0  0  0
  1  2  2  0
  2  3  1  0
  3  4  2  0
  4  5  1  0
  5  6  1  0
  6  7  1  0
  7  8  1  0
  8  9  2  0
  9 10  1  0
 10 11  2  0
 11 12  1  0
  2 13  1  0
 13 14  1  0
 14 15  1  0
 15 16  1  0
 16 17  1  0
 17 18  1  0
 18 19  1  1
 19 20  2  0
 20 21  1  0
 21 22  1  0
 22 23  2  0
 11  3  1  0
 18 13  1  0
 23 19  1  0
  8  4  1  0
M  END
>  <cnnaffinity>  (16) 
-5.71577

>  <cnnaffinityIC50>  (16) 
1924.1104575828485 nanomolar

>  <smiles>  (16) 
O=C(C1=C2OCOC2=CC=C1Cl)N1CCCCC1C1=NNN=N1

>  <origin>  (16) 
x0358-P2-elab.sdf

>  <ref_pdb>  (16) 
x0310

>  <butcher #BAD>  (16) 
1

>  <butcher #GOOD>  (16) 
22

>  <butcher #protein clash>  (16) 
1

>  <butcher #solvent space>  (16) 
0

>  <butcher #pocket>  (16) 
22

>  <butcher #P1>  (16) 
15

>  <butcher #P2>  (16) 
3

>  <butcher #P1'>  (16) 
4

>  <butcher #P2'>  (16) 
0

>  <butcher #P3>  (16) 
0

>  <butcher #P4>  (16) 
0

>  <butcher #P5>  (16) 
0

>  <butcher #P6>  (16) 
0

>  <ref_mols>  (16) 
A71x0351a

$$$$
Z5463574230
     RDKit          3D

 23 25  0  0  0  0  0  0  0  0999 V2000
   17.9500   11.2460   26.5210 C   0  0  0  0  0  0  0  0  0  0  0  0
   16.6068   11.9638   26.6819 C   0  0  0  0  0  0  0  0  0  0  0  0
   16.3392   12.1518   28.1761 C   0  0  0  0  0  0  0  0  0  0  0  0
   16.5566   13.3034   25.8978 C   0  0  2  0  0  0  0  0  0  0  0  0
   17.6448   14.1740   26.3402 N   0  0  0  0  0  0  0  0  0  0  0  0
   15.1761   13.9251   25.9255 C   0  0  0  0  0  0  0  0  0  0  0  0
   14.7027   14.8443   26.8079 C   0  0  0  0  0  0  0  0  0  0  0  0
   13.0933   15.3243   26.4034 S   0  0  0  0  0  0  0  0  0  0  0  0
   13.1527   14.1864   25.0895 C   0  0  0  0  0  0  0  0  0  0  0  0
   12.0305   13.9440   24.2988 N   0  0  0  0  0  0  0  0  0  0  0  0
   10.8132   14.5687   24.4825 C   0  0  0  0  0  0  0  0  0  0  0  0
   10.6327   15.4305   25.3215 O   0  0  0  0  0  0  0  0  0  0  0  0
    9.6987   14.0692   23.5727 C   0  0  0  0  0  0  0  0  0  0  0  0
    8.9833   12.8837   24.1834 C   0  0  0  0  0  0  0  0  0  0  0  0
    7.9322   13.0306   25.1036 C   0  0  0  0  0  0  0  0  0  0  0  0
    7.3076   11.9288   25.6830 C   0  0  0  0  0  0  0  0  0  0  0  0
    7.6968   10.6181   25.3605 C   0  0  0  0  0  0  0  0  0  0  0  0
    8.7232   10.4866   24.4534 C   0  0  0  0  0  0  0  0  0  0  0  0
    9.3531   11.5884   23.8915 C   0  0  0  0  0  0  0  0  0  0  0  0
   10.3071   11.1702   22.9988 O   0  0  0  0  0  0  0  0  0  0  0  0
   10.3619    9.7489   23.1285 C   0  0  0  0  0  0  0  0  0  0  0  0
    9.2532    9.3364   23.9211 O   0  0  0  0  0  0  0  0  0  0  0  0
   14.2644   13.5275   24.9594 N   0  0  0  0  0  0  0  0  0  0  0  0
  1  2  1  0
  2  3  1  0
  2  4  1  0
  4  5  1  1
  4  6  1  0
  6  7  2  0
  7  8  1  0
  8  9  1  0
  9 10  1  0
 10 11  1  0
 11 12  2  0
 11 13  1  0
 13 14  1  0
 14 15  2  0
 15 16  1  0
 16 17  2  0
 17 18  1  0
 18 19  2  0
 19 20  1  0
 20 21  1  0
 21 22  1  0
  9 23  2  0
 23  6  1  0
 19 14  1  0
 22 18  1  0
M  END
>  <cnnaffinity>  (17) 
-5.70976

>  <cnnaffinityIC50>  (17) 
1950.922421489939 nanomolar

>  <smiles>  (17) 
CC(C)[C@H](N)C1=CSC(NC(=O)CC2=CC=CC3=C2OCO3)=N1

>  <origin>  (17) 
x0358-P2-elab.sdf

>  <ref_pdb>  (17) 
x0310

>  <butcher #BAD>  (17) 
2

>  <butcher #GOOD>  (17) 
21

>  <butcher #protein clash>  (17) 
2

>  <butcher #solvent space>  (17) 
0

>  <butcher #pocket>  (17) 
21

>  <butcher #P1>  (17) 
11

>  <butcher #P2>  (17) 
0

>  <butcher #P1'>  (17) 
6

>  <butcher #P2'>  (17) 
4

>  <butcher #P3>  (17) 
0

>  <butcher #P4>  (17) 
0

>  <butcher #P5>  (17) 
0

>  <butcher #P6>  (17) 
0

>  <ref_mols>  (17) 
A71x0351a

$$$$
Z4305125307
     RDKit          3D

 23 25  0  0  0  0  0  0  0  0999 V2000
   10.7777   17.4016   17.2369 N   0  0  0  0  0  0  0  0  0  0  0  0
   10.2171   16.6998   17.9735 C   0  0  0  0  0  0  0  0  0  0  0  0
    9.3778   15.9074   18.8625 C   0  0  0  0  0  0  0  0  0  0  0  0
    8.5126   16.8989   19.5217 C   0  0  0  0  0  0  0  0  0  0  0  0
    7.8043   17.6803   20.0122 N   0  0  0  0  0  0  0  0  0  0  0  0
   10.1364   15.0011   19.8780 C   0  0  0  0  0  0  0  0  0  0  0  0
   10.7673   15.7850   21.0247 C   0  0  0  0  0  0  0  0  0  0  0  0
   11.5129   14.9306   22.0366 C   0  0  0  0  0  0  0  0  0  0  0  0
   10.5200   14.0386   22.6235 N   0  0  0  0  0  0  0  0  0  0  0  0
   10.2973   13.9457   23.9942 C   0  0  0  0  0  0  0  0  0  0  0  0
   10.7889   14.7515   24.7742 O   0  0  0  0  0  0  0  0  0  0  0  0
    9.4215   12.8802   24.4795 C   0  0  0  0  0  0  0  0  0  0  0  0
    9.6463   11.5769   24.0250 C   0  0  0  0  0  0  0  0  0  0  0  0
   10.6649   11.1481   23.2372 O   0  0  0  0  0  0  0  0  0  0  0  0
   10.4250    9.7397   23.0541 C   0  0  0  0  0  0  0  0  0  0  0  0
    9.1992    9.3917   23.7324 O   0  0  0  0  0  0  0  0  0  0  0  0
    8.7834   10.5457   24.3228 C   0  0  0  0  0  0  0  0  0  0  0  0
    7.6469   10.7949   25.0986 C   0  0  0  0  0  0  0  0  0  0  0  0
    7.4135   12.0945   25.5866 C   0  0  0  0  0  0  0  0  0  0  0  0
    8.3047   13.1381   25.2907 C   0  0  0  0  0  0  0  0  0  0  0  0
    7.9569   14.9131   25.9247 Br  0  0  0  0  0  0  0  0  0  0  0  0
    9.6969   13.2509   21.7150 C   0  0  0  0  0  0  0  0  0  0  0  0
    9.1023   14.0992   20.5710 C   0  0  0  0  0  0  0  0  0  0  0  0
  1  2  3  0
  2  3  1  0
  3  4  1  0
  4  5  3  0
  3  6  1  0
  6  7  1  0
  7  8  1  0
  8  9  1  0
  9 10  1  0
 10 11  2  0
 10 12  1  0
 12 13  2  0
 13 14  1  0
 14 15  1  0
 15 16  1  0
 16 17  1  0
 17 18  2  0
 18 19  1  0
 19 20  2  0
 20 21  1  0
  9 22  1  0
 22 23  1  0
 23  6  1  0
 20 12  1  0
 17 13  1  0
M  END
>  <cnnaffinity>  (18) 
-5.70418

>  <cnnaffinityIC50>  (18) 
1976.1504245437357 nanomolar

>  <smiles>  (18) 
N#CC(C#N)C1CCN(C(=O)C2=C3OCOC3=CC=C2Br)CC1

>  <origin>  (18) 
x0358-P2-elab.sdf

>  <ref_pdb>  (18) 
x0310

>  <butcher #BAD>  (18) 
3

>  <butcher #GOOD>  (18) 
20

>  <butcher #protein clash>  (18) 
3

>  <butcher #solvent space>  (18) 
0

>  <butcher #pocket>  (18) 
20

>  <butcher #P1>  (18) 
13

>  <butcher #P2>  (18) 
6

>  <butcher #P1'>  (18) 
1

>  <butcher #P2'>  (18) 
0

>  <butcher #P3>  (18) 
0

>  <butcher #P4>  (18) 
0

>  <butcher #P5>  (18) 
0

>  <butcher #P6>  (18) 
0

>  <ref_mols>  (18) 
A71x0351a

$$$$
Z3939196665
     RDKit          3D

 23 26  0  0  0  0  0  0  0  0999 V2000
   10.0743   17.3198   17.3393 O   0  0  0  0  0  0  0  0  0  0  0  0
   10.4418   16.5486   18.2120 C   0  0  0  0  0  0  0  0  0  0  0  0
   11.3154   15.5421   17.9179 N   0  0  0  0  0  0  0  0  0  0  0  0
   11.3917   14.6375   19.0438 C   0  0  0  0  0  0  0  0  0  0  0  0
   10.6525   15.4226   20.1469 C   0  0  0  0  0  0  0  0  0  0  0  0
    9.3635   14.7461   20.6541 C   0  0  0  0  0  0  0  0  0  0  0  0
    9.6435   13.6010   21.6214 C   0  0  0  0  0  0  0  0  0  0  0  0
   10.4957   14.0948   22.6819 N   0  0  0  0  0  0  0  0  0  0  0  0
   10.1441   13.9262   24.0198 C   0  0  0  0  0  0  0  0  0  0  0  0
   10.7346   14.5505   24.8923 O   0  0  0  0  0  0  0  0  0  0  0  0
    9.2191   12.8498   24.4124 C   0  0  0  0  0  0  0  0  0  0  0  0
    8.1078   13.0246   25.2717 C   0  0  0  0  0  0  0  0  0  0  0  0
    7.2950   11.9294   25.6153 C   0  0  0  0  0  0  0  0  0  0  0  0
    5.7709   12.1749   26.7493 Br  0  0  0  0  0  0  0  0  0  0  0  0
    7.5944   10.6522   25.1171 C   0  0  0  0  0  0  0  0  0  0  0  0
    8.7039   10.4784   24.2917 C   0  0  0  0  0  0  0  0  0  0  0  0
    9.4851   11.5594   23.9417 C   0  0  0  0  0  0  0  0  0  0  0  0
   10.5004   11.1650   23.1330 O   0  0  0  0  0  0  0  0  0  0  0  0
   10.3684    9.7326   23.0406 C   0  0  0  0  0  0  0  0  0  0  0  0
    9.1693    9.3305   23.7321 O   0  0  0  0  0  0  0  0  0  0  0  0
   11.8094   14.5778   22.2679 C   0  0  0  0  0  0  0  0  0  0  0  0
   11.6346   15.7495   21.3008 C   0  0  0  0  0  0  0  0  0  0  0  0
   10.1044   16.5884   19.5087 O   0  0  0  0  0  0  0  0  0  0  0  0
  1  2  2  0
  2  3  1  0
  3  4  1  0
  4  5  1  0
  5  6  1  0
  6  7  1  0
  7  8  1  0
  8  9  1  0
  9 10  2  0
  9 11  1  0
 11 12  2  0
 12 13  1  0
 13 14  1  0
 13 15  2  0
 15 16  1  0
 16 17  2  0
 17 18  1  0
 18 19  1  0
 19 20  1  0
  8 21  1  0
 21 22  1  0
  5 23  1  0
 23  2  1  0
 22  5  1  0
 17 11  1  0
 20 16  1  0
M  END
>  <cnnaffinity>  (19) 
-5.70352

>  <cnnaffinityIC50>  (19) 
1979.1558756425707 nanomolar

>  <smiles>  (19) 
O=C1NCC2(CCN(C(=O)C3=CC(Br)=CC4=C3OCO4)CC2)O1

>  <origin>  (19) 
x0358-P2-elab.sdf

>  <ref_pdb>  (19) 
x0310

>  <butcher #BAD>  (19) 
4

>  <butcher #GOOD>  (19) 
19

>  <butcher #protein clash>  (19) 
3

>  <butcher #solvent space>  (19) 
1

>  <butcher #pocket>  (19) 
19

>  <butcher #P1>  (19) 
13

>  <butcher #P2>  (19) 
5

>  <butcher #P1'>  (19) 
1

>  <butcher #P2'>  (19) 
0

>  <butcher #P3>  (19) 
0

>  <butcher #P4>  (19) 
0

>  <butcher #P5>  (19) 
0

>  <butcher #P6>  (19) 
0

>  <ref_mols>  (19) 
A71x0351a

$$$$
Z3363604494
     RDKit          3D

 23 26  0  0  0  0  0  0  0  0999 V2000
   11.1956   14.3114   24.8782 O   0  0  0  0  0  0  0  0  0  0  0  0
   10.5249   13.7547   24.0315 C   0  0  0  0  0  0  0  0  0  0  0  0
    9.4868   12.7121   24.3961 C   0  0  0  0  0  0  0  0  0  0  0  0
    9.6681   11.3954   24.0132 C   0  0  0  0  0  0  0  0  0  0  0  0
   10.6311   10.9054   23.1739 O   0  0  0  0  0  0  0  0  0  0  0  0
   10.5025    9.4890   23.2612 C   0  0  0  0  0  0  0  0  0  0  0  0
    9.2065    9.2052   23.7689 O   0  0  0  0  0  0  0  0  0  0  0  0
    8.7989   10.3732   24.3584 C   0  0  0  0  0  0  0  0  0  0  0  0
    7.6694   10.6139   25.1003 C   0  0  0  0  0  0  0  0  0  0  0  0
    7.4317   11.9409   25.4815 C   0  0  0  0  0  0  0  0  0  0  0  0
    8.3185   12.9586   25.1338 C   0  0  0  0  0  0  0  0  0  0  0  0
    7.9210   14.5814   25.6105 Cl  0  0  0  0  0  0  0  0  0  0  0  0
   10.6477   14.0076   22.6911 N   0  0  0  0  0  0  0  0  0  0  0  0
   11.8643   14.5805   22.1256 C   0  0  0  0  0  0  0  0  0  0  0  0
   11.5247   15.8050   21.2693 C   0  0  0  0  0  0  0  0  0  0  0  0
   10.4708   15.4926   20.1692 C   0  0  0  0  0  0  0  0  0  0  0  0
    9.8422   16.7259   19.4700 C   0  0  0  0  0  0  0  0  0  0  0  0
   10.2506   16.7121   17.9857 C   0  0  0  0  0  0  0  0  0  0  0  0
   11.1259   15.5641   17.9081 N   0  0  0  0  0  0  0  0  0  0  0  0
   11.2290   14.7987   19.0234 C   0  0  0  0  0  0  0  0  0  0  0  0
   11.8905   13.7789   19.0904 O   0  0  0  0  0  0  0  0  0  0  0  0
    9.3113   14.6875   20.7754 C   0  0  0  0  0  0  0  0  0  0  0  0
    9.7364   13.5423   21.6683 C   0  0  0  0  0  0  0  0  0  0  0  0
  1  2  2  0
  2  3  1  0
  3  4  2  0
  4  5  1  0
  5  6  1  0
  6  7  1  0
  7  8  1  0
  8  9  2  0
  9 10  1  0
 10 11  2  0
 11 12  1  0
  2 13  1  0
 13 14  1  0
 14 15  1  0
 15 16  1  0
 16 17  1  0
 17 18  1  0
 18 19  1  0
 19 20  1  0
 20 21  2  0
 16 22  1  0
 22 23  1  0
 11  3  1  0
 23 13  1  0
  8  4  1  0
 20 16  1  0
M  END
>  <cnnaffinity>  (20) 
-5.70287

>  <cnnaffinityIC50>  (20) 
1982.1202570852547 nanomolar

>  <smiles>  (20) 
O=C(C1=C2OCOC2=CC=C1Cl)N1CCC2(CCNC2=O)CC1

>  <origin>  (20) 
x0358-P2-elab.sdf

>  <ref_pdb>  (20) 
x0310

>  <butcher #BAD>  (20) 
3

>  <butcher #GOOD>  (20) 
20

>  <butcher #protein clash>  (20) 
3

>  <butcher #solvent space>  (20) 
0

>  <butcher #pocket>  (20) 
20

>  <butcher #P1>  (20) 
13

>  <butcher #P2>  (20) 
5

>  <butcher #P1'>  (20) 
2

>  <butcher #P2'>  (20) 
0

>  <butcher #P3>  (20) 
0

>  <butcher #P4>  (20) 
0

>  <butcher #P5>  (20) 
0

>  <butcher #P6>  (20) 
0

>  <ref_mols>  (20) 
A71x0351a

$$$$
Z4383247673
     RDKit          3D

 23 26  0  0  0  0  0  0  0  0999 V2000
   11.4853   13.8477   24.9359 O   0  0  0  0  0  0  0  0  0  0  0  0
   11.8183   13.2135   23.9453 C   0  0  0  0  0  0  0  0  0  0  0  0
   13.0835   13.6068   23.2193 C   0  0  0  0  0  0  0  0  0  0  0  0
   12.6077   14.4163   22.1157 N   0  0  0  0  0  0  0  0  0  0  0  0
   12.8632   15.7333   21.9361 N   0  0  0  0  0  0  0  0  0  0  0  0
   12.1478   16.0918   20.9404 N   0  0  0  0  0  0  0  0  0  0  0  0
   11.4547   14.9663   20.5386 C   0  0  0  0  0  0  0  0  0  0  0  0
   10.5091   14.8398   19.3894 C   0  0  0  0  0  0  0  0  0  0  0  0
   10.0287   16.0032   18.5234 C   0  0  0  0  0  0  0  0  0  0  0  0
   11.1314   15.0709   18.0231 C   0  0  0  0  0  0  0  0  0  0  0  0
   11.6953   13.9230   21.2692 N   0  0  0  0  0  0  0  0  0  0  0  0
   11.0312   12.1748   23.4576 N   0  0  0  0  0  0  0  0  0  0  0  0
    9.8268   11.7297   24.0572 C   0  0  0  0  0  0  0  0  0  0  0  0
    9.1075   12.6614   24.7984 C   0  0  0  0  0  0  0  0  0  0  0  0
    7.9717   12.2656   25.4928 C   0  0  0  0  0  0  0  0  0  0  0  0
    7.2808   13.1807   26.2958 C   0  0  0  0  0  0  0  0  0  0  0  0
    6.1330   12.7715   26.9784 C   0  0  0  0  0  0  0  0  0  0  0  0
    5.6768   11.4533   26.8628 C   0  0  0  0  0  0  0  0  0  0  0  0
    6.3828   10.5364   26.0725 C   0  0  0  0  0  0  0  0  0  0  0  0
    7.5342   10.9261   25.3872 C   0  0  0  0  0  0  0  0  0  0  0  0
    8.1894   10.0186   24.6447 N   0  0  0  0  0  0  0  0  0  0  0  0
    9.3122   10.3988   23.9963 C   0  0  0  0  0  0  0  0  0  0  0  0
   10.2508    9.0414   23.0284 Br  0  0  0  0  0  0  0  0  0  0  0  0
  1  2  2  0
  2  3  1  0
  3  4  1  0
  4  5  1  0
  5  6  2  0
  6  7  1  0
  7  8  1  0
  8  9  1  0
  9 10  1  0
  7 11  2  0
  2 12  1  0
 12 13  1  0
 13 14  2  0
 14 15  1  0
 15 16  2  0
 16 17  1  0
 17 18  2  0
 18 19  1  0
 19 20  2  0
 20 21  1  0
 21 22  2  0
 22 23  1  0
 11  4  1  0
 22 13  1  0
 10  8  1  0
 20 15  1  0
M  END
>  <cnnaffinity>  (21) 
-6.22951

>  <cnnaffinityIC50>  (21) 
589.5084029766052 nanomolar

>  <smiles>  (21) 
O=C(CN1N=NC(C2CC2)=N1)NC1=CC2=CC=CC=C2N=C1Br

>  <origin>  (21) 
x1097_x0310.sdf

>  <ref_pdb>  (21) 
x0310

>  <butcher #BAD>  (21) 
3

>  <butcher #GOOD>  (21) 
20

>  <butcher #protein clash>  (21) 
1

>  <butcher #solvent space>  (21) 
2

>  <butcher #pocket>  (21) 
20

>  <butcher #P1>  (21) 
12

>  <butcher #P2>  (21) 
4

>  <butcher #P1'>  (21) 
4

>  <butcher #P2'>  (21) 
0

>  <butcher #P3>  (21) 
0

>  <butcher #P4>  (21) 
0

>  <butcher #P5>  (21) 
0

>  <butcher #P6>  (21) 
0

>  <ref_mols>  (21) 
A71x0310a

$$$$
Z4048901029
     RDKit          3D

 22 24  0  0  0  0  0  0  0  0999 V2000
   12.5715   13.7969   18.9248 N   0  0  0  0  0  0  0  0  0  0  0  0
   12.3876   13.9421   20.0577 C   0  0  0  0  0  0  0  0  0  0  0  0
   12.0325   14.1848   21.4660 C   0  0  0  0  0  0  0  0  0  0  0  0
   10.6142   13.5770   21.6222 C   0  0  0  0  0  0  0  0  0  0  0  0
    9.6305   14.2245   21.3208 O   0  0  0  0  0  0  0  0  0  0  0  0
   10.5460   12.2935   22.1388 N   0  0  0  0  0  0  0  0  0  0  0  0
    9.5955   11.9115   23.0850 C   0  0  0  0  0  0  0  0  0  0  0  0
    8.8318   12.8516   23.7227 C   0  0  0  0  0  0  0  0  0  0  0  0
    7.9815   12.4780   24.7797 C   0  0  0  0  0  0  0  0  0  0  0  0
    7.2462   13.4323   25.5264 C   0  0  0  0  0  0  0  0  0  0  0  0
    6.4262   13.0313   26.5455 C   0  0  0  0  0  0  0  0  0  0  0  0
    6.3060   11.6515   26.8560 C   0  0  0  0  0  0  0  0  0  0  0  0
    7.0083   10.7075   26.1499 C   0  0  0  0  0  0  0  0  0  0  0  0
    7.8822   11.1086   25.1054 C   0  0  0  0  0  0  0  0  0  0  0  0
    8.6135   10.1645   24.4370 N   0  0  0  0  0  0  0  0  0  0  0  0
    9.4243   10.5544   23.5111 C   0  0  0  0  0  0  0  0  0  0  0  0
   10.3866    9.3293   22.7135 Cl  0  0  0  0  0  0  0  0  0  0  0  0
   13.0728   13.6290   22.4628 C   0  0  0  0  0  0  0  0  0  0  0  0
   12.6546   13.8393   23.9179 C   0  0  0  0  0  0  0  0  0  0  0  0
   12.4318   15.3268   24.1795 C   0  0  0  0  0  0  0  0  0  0  0  0
   11.5061   15.9555   23.1450 C   0  0  0  0  0  0  0  0  0  0  0  0
   11.9795   15.7141   21.7171 C   0  0  0  0  0  0  0  0  0  0  0  0
  1  2  3  0
  2  3  1  0
  3  4  1  0
  4  5  2  0
  4  6  1  0
  6  7  1  0
  7  8  2  0
  8  9  1  0
  9 10  2  0
 10 11  1  0
 11 12  2  0
 12 13  1  0
 13 14  2  0
 14 15  1  0
 15 16  2  0
 16 17  1  0
  3 18  1  0
 18 19  1  0
 19 20  1  0
 20 21  1  0
 21 22  1  0
 22  3  1  0
 16  7  1  0
 14  9  1  0
M  END
>  <cnnaffinity>  (22) 
-6.22266

>  <cnnaffinityIC50>  (22) 
598.8802623214531 nanomolar

>  <smiles>  (22) 
N#CC1(C(=O)NC2=CC3=CC=CC=C3N=C2Cl)CCCCC1

>  <origin>  (22) 
x1097_x0310.sdf

>  <ref_pdb>  (22) 
x0310

>  <butcher #BAD>  (22) 
4

>  <butcher #GOOD>  (22) 
18

>  <butcher #protein clash>  (22) 
2

>  <butcher #solvent space>  (22) 
2

>  <butcher #pocket>  (22) 
18

>  <butcher #P1>  (22) 
13

>  <butcher #P2>  (22) 
2

>  <butcher #P1'>  (22) 
3

>  <butcher #P2'>  (22) 
0

>  <butcher #P3>  (22) 
0

>  <butcher #P4>  (22) 
0

>  <butcher #P5>  (22) 
0

>  <butcher #P6>  (22) 
0

>  <ref_mols>  (22) 
A71x0310a

$$$$
Z4383247638
     RDKit          3D

 23 25  0  0  0  0  0  0  0  0999 V2000
   13.1496   14.3575   24.0124 C   0  0  0  0  0  0  0  0  0  0  0  0
   12.8572   14.8662   22.5979 C   0  0  0  0  0  0  0  0  0  0  0  0
   11.9006   16.0572   22.7052 C   0  0  0  0  0  0  0  0  0  0  0  0
   12.1955   13.7530   21.7544 C   0  0  1  0  0  0  0  0  0  0  0  0
   10.8727   13.3149   22.4162 C   0  0  0  0  0  0  0  0  0  0  0  0
    9.9038   14.0646   22.4283 O   0  0  0  0  0  0  0  0  0  0  0  0
   10.8101   12.0964   23.0806 N   0  0  0  0  0  0  0  0  0  0  0  0
    9.7291   11.6606   23.8911 C   0  0  0  0  0  0  0  0  0  0  0  0
    9.0060   12.6361   24.5800 C   0  0  0  0  0  0  0  0  0  0  0  0
    7.9610   12.2421   25.4159 C   0  0  0  0  0  0  0  0  0  0  0  0
    7.2476   13.1929   26.1603 C   0  0  0  0  0  0  0  0  0  0  0  0
    6.1812   12.7849   26.9714 C   0  0  0  0  0  0  0  0  0  0  0  0
    5.8218   11.4353   27.0342 C   0  0  0  0  0  0  0  0  0  0  0  0
    6.5473   10.4916   26.2990 C   0  0  0  0  0  0  0  0  0  0  0  0
    7.6268   10.8712   25.5010 C   0  0  0  0  0  0  0  0  0  0  0  0
    8.3070    9.9212   24.8410 N   0  0  0  0  0  0  0  0  0  0  0  0
    9.3442   10.2969   24.0618 C   0  0  0  0  0  0  0  0  0  0  0  0
   10.2581    8.9069   23.1104 Br  0  0  0  0  0  0  0  0  0  0  0  0
   11.9770   14.2456   20.3714 N   0  0  0  0  0  0  0  0  0  0  0  0
   12.8595   14.1922   19.3171 C   0  0  0  0  0  0  0  0  0  0  0  0
   12.3220   14.7920   18.2991 N   0  0  0  0  0  0  0  0  0  0  0  0
   11.0974   15.2275   18.7182 N   0  0  0  0  0  0  0  0  0  0  0  0
   10.8832   14.9169   19.9487 N   0  0  0  0  0  0  0  0  0  0  0  0
  1  2  1  0
  2  3  1  0
  4  2  1  1
  4  5  1  0
  5  6  2  0
  5  7  1  0
  7  8  1  0
  8  9  2  0
  9 10  1  0
 10 11  2  0
 11 12  1  0
 12 13  2  0
 13 14  1  0
 14 15  2  0
 15 16  1  0
 16 17  2  0
 17 18  1  0
  4 19  1  0
 19 20  1  0
 20 21  2  0
 21 22  1  0
 22 23  2  0
 17  8  1  0
 23 19  1  0
 15 10  1  0
M  END
>  <cnnaffinity>  (23) 
-6.18839

>  <cnnaffinityIC50>  (23) 
648.0522159742167 nanomolar

>  <smiles>  (23) 
CC(C)C(C(=O)NC1=CC2=CC=CC=C2N=C1Br)N1C=NN=N1

>  <origin>  (23) 
x1097_x0310.sdf

>  <ref_pdb>  (23) 
x0310

>  <butcher #BAD>  (23) 
5

>  <butcher #GOOD>  (23) 
18

>  <butcher #protein clash>  (23) 
2

>  <butcher #solvent space>  (23) 
3

>  <butcher #pocket>  (23) 
18

>  <butcher #P1>  (23) 
13

>  <butcher #P2>  (23) 
2

>  <butcher #P1'>  (23) 
3

>  <butcher #P2'>  (23) 
0

>  <butcher #P3>  (23) 
0

>  <butcher #P4>  (23) 
0

>  <butcher #P5>  (23) 
0

>  <butcher #P6>  (23) 
0

>  <ref_mols>  (23) 
A71x0310a

$$$$
Z4375780482
     RDKit          3D

 23 25  0  0  0  0  0  0  0  0999 V2000
   11.8966   16.0683   22.6620 C   0  0  0  0  0  0  0  0  0  0  0  0
   12.8495   14.8715   22.5778 C   0  0  0  0  0  0  0  0  0  0  0  0
   13.1261   14.3790   24.0024 C   0  0  0  0  0  0  0  0  0  0  0  0
   12.1935   13.7530   21.7369 C   0  0  1  0  0  0  0  0  0  0  0  0
   10.8613   13.3323   22.3809 C   0  0  0  0  0  0  0  0  0  0  0  0
    9.9053   14.0989   22.4259 O   0  0  0  0  0  0  0  0  0  0  0  0
   10.7948   12.1107   23.0459 N   0  0  0  0  0  0  0  0  0  0  0  0
    9.7216   11.6771   23.8651 C   0  0  0  0  0  0  0  0  0  0  0  0
    9.0009   12.6510   24.5606 C   0  0  0  0  0  0  0  0  0  0  0  0
    7.9639   12.2521   25.4058 C   0  0  0  0  0  0  0  0  0  0  0  0
    7.2499   13.1992   26.1552 C   0  0  0  0  0  0  0  0  0  0  0  0
    6.1866   12.7899   26.9680 C   0  0  0  0  0  0  0  0  0  0  0  0
    5.8281   11.4401   27.0298 C   0  0  0  0  0  0  0  0  0  0  0  0
    6.5548   10.4973   26.2954 C   0  0  0  0  0  0  0  0  0  0  0  0
    7.6343   10.8781   25.4952 C   0  0  0  0  0  0  0  0  0  0  0  0
    8.3179    9.9288   24.8344 N   0  0  0  0  0  0  0  0  0  0  0  0
    9.3474   10.3072   24.0459 C   0  0  0  0  0  0  0  0  0  0  0  0
   10.2707    8.9145   23.1015 Br  0  0  0  0  0  0  0  0  0  0  0  0
   11.9775   14.2252   20.3527 N   0  0  0  0  0  0  0  0  0  0  0  0
   12.8844   14.1904   19.3054 C   0  0  0  0  0  0  0  0  0  0  0  0
   12.3702   14.7602   18.2540 N   0  0  0  0  0  0  0  0  0  0  0  0
   11.1074   15.1297   18.6882 C   0  0  0  0  0  0  0  0  0  0  0  0
   10.8423   14.8244   19.9367 N   0  0  0  0  0  0  0  0  0  0  0  0
  1  2  1  0
  2  3  1  0
  4  2  1  1
  4  5  1  0
  5  6  2  0
  5  7  1  0
  7  8  1  0
  8  9  2  0
  9 10  1  0
 10 11  2  0
 11 12  1  0
 12 13  2  0
 13 14  1  0
 14 15  2  0
 15 16  1  0
 16 17  2  0
 17 18  1  0
  4 19  1  0
 19 20  1  0
 20 21  2  0
 21 22  1  0
 22 23  2  0
 17  8  1  0
 23 19  1  0
 15 10  1  0
M  END
>  <cnnaffinity>  (24) 
-6.17705

>  <cnnaffinityIC50>  (24) 
665.1965682079727 nanomolar

>  <smiles>  (24) 
CC(C)C(C(=O)NC1=CC2=CC=CC=C2N=C1Br)N1C=NC=N1

>  <origin>  (24) 
x1097_x0310.sdf

>  <ref_pdb>  (24) 
x0310

>  <butcher #BAD>  (24) 
5

>  <butcher #GOOD>  (24) 
18

>  <butcher #protein clash>  (24) 
2

>  <butcher #solvent space>  (24) 
3

>  <butcher #pocket>  (24) 
18

>  <butcher #P1>  (24) 
13

>  <butcher #P2>  (24) 
2

>  <butcher #P1'>  (24) 
3

>  <butcher #P2'>  (24) 
0

>  <butcher #P3>  (24) 
0

>  <butcher #P4>  (24) 
0

>  <butcher #P5>  (24) 
0

>  <butcher #P6>  (24) 
0

>  <ref_mols>  (24) 
A71x0310a

$$$$
Z3084362121
     RDKit          3D

 23 26  0  0  0  0  0  0  0  0999 V2000
    9.8923   13.8747   22.2277 O   0  0  0  0  0  0  0  0  0  0  0  0
   10.8865   13.1602   22.3053 C   0  0  0  0  0  0  0  0  0  0  0  0
   10.8213   12.0038   23.0757 N   0  0  0  0  0  0  0  0  0  0  0  0
    9.7282   11.6193   23.8926 C   0  0  0  0  0  0  0  0  0  0  0  0
    9.0257   12.6066   24.5929 C   0  0  0  0  0  0  0  0  0  0  0  0
    7.9653   12.2311   25.4249 C   0  0  0  0  0  0  0  0  0  0  0  0
    7.2447   13.1801   26.1704 C   0  0  0  0  0  0  0  0  0  0  0  0
    6.1727   12.7750   26.9771 C   0  0  0  0  0  0  0  0  0  0  0  0
    5.8113   11.4279   27.0450 C   0  0  0  0  0  0  0  0  0  0  0  0
    6.5373   10.4851   26.3115 C   0  0  0  0  0  0  0  0  0  0  0  0
    7.6167   10.8635   25.5103 C   0  0  0  0  0  0  0  0  0  0  0  0
    8.2833    9.9064   24.8453 N   0  0  0  0  0  0  0  0  0  0  0  0
    9.3209   10.2666   24.0639 C   0  0  0  0  0  0  0  0  0  0  0  0
   10.2288    8.8780   23.1089 Br  0  0  0  0  0  0  0  0  0  0  0  0
   12.2274   13.6037   21.6796 C   0  0  2  0  0  0  0  0  0  0  0  0
   12.9756   14.5403   22.6617 C   0  0  0  0  0  0  0  0  0  0  0  0
   12.2955   15.9169   22.7609 C   0  0  0  0  0  0  0  0  0  0  0  0
   12.1732   16.5718   21.3739 C   0  0  0  0  0  0  0  0  0  0  0  0
   11.6139   15.6244   20.3480 C   0  0  0  0  0  0  0  0  0  0  0  0
   10.8892   15.8196   19.2749 N   0  0  0  0  0  0  0  0  0  0  0  0
   11.0888   14.6611   18.5521 C   0  0  0  0  0  0  0  0  0  0  0  0
   11.7631   13.7502   19.1948 N   0  0  0  0  0  0  0  0  0  0  0  0
   12.0000   14.3101   20.3988 N   0  0  0  0  0  0  0  0  0  0  0  0
  1  2  2  0
  2  3  1  0
  3  4  1  0
  4  5  2  0
  5  6  1  0
  6  7  2  0
  7  8  1  0
  8  9  2  0
  9 10  1  0
 10 11  2  0
 11 12  1  0
 12 13  2  0
 13 14  1  0
 15  2  1  1
 15 16  1  0
 16 17  1  0
 17 18  1  0
 18 19  1  0
 19 20  2  0
 20 21  1  0
 21 22  2  0
 22 23  1  0
 13  4  1  0
 23 15  1  0
 11  6  1  0
 23 19  1  0
M  END
>  <cnnaffinity>  (25) 
-6.16229

>  <cnnaffinityIC50>  (25) 
688.1926024931407 nanomolar

>  <smiles>  (25) 
O=C(NC1=CC2=CC=CC=C2N=C1Br)C1CCCC2=NC=NN21

>  <origin>  (25) 
x1097_x0310.sdf

>  <ref_pdb>  (25) 
x0310

>  <butcher #BAD>  (25) 
5

>  <butcher #GOOD>  (25) 
18

>  <butcher #protein clash>  (25) 
2

>  <butcher #solvent space>  (25) 
3

>  <butcher #pocket>  (25) 
18

>  <butcher #P1>  (25) 
13

>  <butcher #P2>  (25) 
3

>  <butcher #P1'>  (25) 
2

>  <butcher #P2'>  (25) 
0

>  <butcher #P3>  (25) 
0

>  <butcher #P4>  (25) 
0

>  <butcher #P5>  (25) 
0

>  <butcher #P6>  (25) 
0

>  <ref_mols>  (25) 
A71x0310a

$$$$
Z4410448635
     RDKit          3D

 23 26  0  0  0  0  0  0  0  0999 V2000
   11.4411   13.6201   24.6436 O   0  0  0  0  0  0  0  0  0  0  0  0
   11.5734   13.0111   23.5894 C   0  0  0  0  0  0  0  0  0  0  0  0
   12.4463   13.6055   22.4856 C   0  0  0  0  0  0  0  0  0  0  0  0
   11.6481   14.5915   21.6056 C   0  0  0  0  0  0  0  0  0  0  0  0
   11.9975   14.6600   20.1356 C   0  0  0  0  0  0  0  0  0  0  0  0
   13.1512   15.0800   19.7010 N   0  0  0  0  0  0  0  0  0  0  0  0
   12.9562   14.9493   18.3730 N   0  0  0  0  0  0  0  0  0  0  0  0
   11.7494   14.4497   18.0237 N   0  0  0  0  0  0  0  0  0  0  0  0
   11.1328   14.2781   19.1220 N   0  0  0  0  0  0  0  0  0  0  0  0
   10.2071   14.9294   22.0069 C   0  0  0  0  0  0  0  0  0  0  0  0
   11.3391   15.9085   22.3013 C   0  0  0  0  0  0  0  0  0  0  0  0
   10.8135   11.8822   23.3169 N   0  0  0  0  0  0  0  0  0  0  0  0
    9.6770   11.5041   24.0663 C   0  0  0  0  0  0  0  0  0  0  0  0
    8.9957   12.4988   24.7675 C   0  0  0  0  0  0  0  0  0  0  0  0
    7.8786   12.1526   25.5249 C   0  0  0  0  0  0  0  0  0  0  0  0
    7.1838   13.1290   26.2541 C   0  0  0  0  0  0  0  0  0  0  0  0
    6.0826   12.7785   27.0404 C   0  0  0  0  0  0  0  0  0  0  0  0
    5.1553   14.1177   28.0444 Br  0  0  0  0  0  0  0  0  0  0  0  0
    5.6656   11.4450   27.0876 C   0  0  0  0  0  0  0  0  0  0  0  0
    6.3482   10.4680   26.3458 C   0  0  0  0  0  0  0  0  0  0  0  0
    7.4581   10.8020   25.5608 C   0  0  0  0  0  0  0  0  0  0  0  0
    8.0935    9.8327   24.8714 N   0  0  0  0  0  0  0  0  0  0  0  0
    9.1768   10.1808   24.1406 C   0  0  0  0  0  0  0  0  0  0  0  0
  1  2  2  0
  2  3  1  0
  3  4  1  0
  4  5  1  0
  5  6  2  0
  6  7  1  0
  7  8  1  0
  8  9  2  0
  4 10  1  0
 10 11  1  0
  2 12  1  0
 12 13  1  0
 13 14  2  0
 14 15  1  0
 15 16  2  0
 16 17  1  0
 17 18  1  0
 17 19  2  0
 19 20  1  0
 20 21  2  0
 21 22  1  0
 22 23  2  0
 11  4  1  0
 23 13  1  0
  9  5  1  0
 21 15  1  0
M  END
>  <cnnaffinity>  (26) 
-6.14051

>  <cnnaffinityIC50>  (26) 
723.5857409110256 nanomolar

>  <smiles>  (26) 
O=C(CC1(C2=NNN=N2)CC1)NC1=CC2=CC(Br)=CC=C2N=C1

>  <origin>  (26) 
x1097_x0310.sdf

>  <ref_pdb>  (26) 
x0310

>  <butcher #BAD>  (26) 
6

>  <butcher #GOOD>  (26) 
17

>  <butcher #protein clash>  (26) 
3

>  <butcher #solvent space>  (26) 
3

>  <butcher #pocket>  (26) 
17

>  <butcher #P1>  (26) 
12

>  <butcher #P2>  (26) 
5

>  <butcher #P1'>  (26) 
0

>  <butcher #P2'>  (26) 
0

>  <butcher #P3>  (26) 
0

>  <butcher #P4>  (26) 
0

>  <butcher #P5>  (26) 
0

>  <butcher #P6>  (26) 
0

>  <ref_mols>  (26) 
A71x0310a

$$$$
Z5361339904
     RDKit          3D

 23 26  0  0  0  0  0  0  0  0999 V2000
   11.5040   13.7725   24.5404 O   0  0  0  0  0  0  0  0  0  0  0  0
   11.6313   13.1943   23.4681 C   0  0  0  0  0  0  0  0  0  0  0  0
   10.8880   12.0567   23.1709 N   0  0  0  0  0  0  0  0  0  0  0  0
    9.7877   11.6136   23.9375 C   0  0  0  0  0  0  0  0  0  0  0  0
    9.1169   12.5821   24.6801 C   0  0  0  0  0  0  0  0  0  0  0  0
    8.0219   12.2183   25.4511 C   0  0  0  0  0  0  0  0  0  0  0  0
    7.3194   13.1887   26.1780 C   0  0  0  0  0  0  0  0  0  0  0  0
    6.2210   12.8143   26.9527 C   0  0  0  0  0  0  0  0  0  0  0  0
    5.8282   11.4756   27.0136 C   0  0  0  0  0  0  0  0  0  0  0  0
    6.5275   10.5126   26.2734 C   0  0  0  0  0  0  0  0  0  0  0  0
    7.6227   10.8637   25.4817 C   0  0  0  0  0  0  0  0  0  0  0  0
    8.2546    9.9126   24.7683 N   0  0  0  0  0  0  0  0  0  0  0  0
    9.3092   10.2709   24.0028 C   0  0  0  0  0  0  0  0  0  0  0  0
   10.1666    8.8887   22.9895 Br  0  0  0  0  0  0  0  0  0  0  0  0
   12.5236   13.7512   22.3536 C   0  0  2  0  0  0  0  0  0  0  0  0
   13.2246   15.0866   22.6185 C   0  0  0  0  0  0  0  0  0  0  0  0
   12.5342   15.6903   21.4077 C   0  0  0  0  0  0  0  0  0  0  0  0
   11.8055   14.3704   21.1217 C   0  0  2  0  0  0  0  0  0  0  0  0
   10.2795   14.4113   21.1198 C   0  0  0  0  0  0  0  0  0  0  0  0
    9.5254   14.0445   20.1063 N   0  0  0  0  0  0  0  0  0  0  0  0
    8.2744   14.1575   20.6050 N   0  0  0  0  0  0  0  0  0  0  0  0
    8.3071   14.5947   21.9077 C   0  0  0  0  0  0  0  0  0  0  0  0
    9.5474   14.7652   22.2510 N   0  0  0  0  0  0  0  0  0  0  0  0
  1  2  2  0
  2  3  1  0
  3  4  1  0
  4  5  2  0
  5  6  1  0
  6  7  2  0
  7  8  1  0
  8  9  2  0
  9 10  1  0
 10 11  2  0
 11 12  1  0
 12 13  2  0
 13 14  1  0
 15  2  1  1
 15 16  1  0
 16 17  1  0
 17 18  1  0
 18 19  1  1
 19 20  2  0
 20 21  1  0
 21 22  1  0
 22 23  2  0
 13  4  1  0
 18 15  1  0
 23 19  1  0
 11  6  1  0
M  END
>  <cnnaffinity>  (27) 
-6.13619

>  <cnnaffinityIC50>  (27) 
730.8192865513232 nanomolar

>  <smiles>  (27) 
O=C(NC1=CC2=CC=CC=C2N=C1Br)[C@@H]1CC[C@@H]1C1=NNC=N1

>  <origin>  (27) 
x1097_x0310.sdf

>  <ref_pdb>  (27) 
x0310

>  <butcher #BAD>  (27) 
3

>  <butcher #GOOD>  (27) 
20

>  <butcher #protein clash>  (27) 
0

>  <butcher #solvent space>  (27) 
3

>  <butcher #pocket>  (27) 
20

>  <butcher #P1>  (27) 
13

>  <butcher #P2>  (27) 
5

>  <butcher #P1'>  (27) 
2

>  <butcher #P2'>  (27) 
0

>  <butcher #P3>  (27) 
0

>  <butcher #P4>  (27) 
0

>  <butcher #P5>  (27) 
0

>  <butcher #P6>  (27) 
0

>  <ref_mols>  (27) 
A71x0310a

$$$$
Z2673144408
     RDKit          3D

 22 24  0  0  0  0  0  0  0  0999 V2000
   10.8819   14.8319   18.9848 C   0  0  0  0  0  0  0  0  0  0  0  0
   12.2983   14.3289   19.9819 S   0  0  0  0  0  6  0  0  0  0  0  0
   13.3485   15.3304   19.8538 O   0  0  0  0  0  0  0  0  0  0  0  0
   12.8364   13.0507   19.5168 O   0  0  0  0  0  0  0  0  0  0  0  0
   11.8234   14.2869   21.7027 C   0  0  0  0  0  0  0  0  0  0  0  0
   10.6138   13.4347   21.5898 C   0  0  0  0  0  0  0  0  0  0  0  0
    9.5832   13.9630   21.2224 O   0  0  0  0  0  0  0  0  0  0  0  0
   10.6232   12.1677   22.1295 N   0  0  0  0  0  0  0  0  0  0  0  0
    9.6458   11.7500   23.0603 C   0  0  0  0  0  0  0  0  0  0  0  0
    8.9544   12.7497   23.7441 C   0  0  0  0  0  0  0  0  0  0  0  0
    8.0669   12.3974   24.7546 C   0  0  0  0  0  0  0  0  0  0  0  0
    7.4077   13.3817   25.5043 C   0  0  0  0  0  0  0  0  0  0  0  0
    6.5426   13.0063   26.5369 C   0  0  0  0  0  0  0  0  0  0  0  0
    6.3301   11.6527   26.8195 C   0  0  0  0  0  0  0  0  0  0  0  0
    6.9892   10.6730   26.0635 C   0  0  0  0  0  0  0  0  0  0  0  0
    7.8638   11.0279   25.0355 C   0  0  0  0  0  0  0  0  0  0  0  0
    8.4926   10.0511   24.3595 N   0  0  0  0  0  0  0  0  0  0  0  0
    9.3717   10.3959   23.3963 C   0  0  0  0  0  0  0  0  0  0  0  0
   10.2640    8.9848   22.4697 Br  0  0  0  0  0  0  0  0  0  0  0  0
   11.7005   15.6559   22.4031 C   0  0  0  0  0  0  0  0  0  0  0  0
   12.9884   15.3657   23.1467 C   0  0  0  0  0  0  0  0  0  0  0  0
   12.9129   13.9120   22.7170 C   0  0  0  0  0  0  0  0  0  0  0  0
  1  2  1  0
  2  3  2  0
  2  4  2  0
  2  5  1  0
  5  6  1  0
  6  7  2  0
  6  8  1  0
  8  9  1  0
  9 10  2  0
 10 11  1  0
 11 12  2  0
 12 13  1  0
 13 14  2  0
 14 15  1  0
 15 16  2  0
 16 17  1  0
 17 18  2  0
 18 19  1  0
  5 20  1  0
 20 21  1  0
 21 22  1  0
 22  5  1  0
 18  9  1  0
 16 11  1  0
M  END
>  <cnnaffinity>  (28) 
-6.12865

>  <cnnaffinityIC50>  (28) 
743.6181819272585 nanomolar

>  <smiles>  (28) 
CS(=O)(=O)C1(C(=O)NC2=CC3=CC=CC=C3N=C2Br)CCC1

>  <origin>  (28) 
x1097_x0310.sdf

>  <ref_pdb>  (28) 
x0310

>  <butcher #BAD>  (28) 
4

>  <butcher #GOOD>  (28) 
18

>  <butcher #protein clash>  (28) 
3

>  <butcher #solvent space>  (28) 
1

>  <butcher #pocket>  (28) 
18

>  <butcher #P1>  (28) 
14

>  <butcher #P2>  (28) 
2

>  <butcher #P1'>  (28) 
2

>  <butcher #P2'>  (28) 
0

>  <butcher #P3>  (28) 
0

>  <butcher #P4>  (28) 
0

>  <butcher #P5>  (28) 
0

>  <butcher #P6>  (28) 
0

>  <ref_mols>  (28) 
A71x0310a

$$$$
Z4377310626
     RDKit          3D

 23 25  0  0  0  0  0  0  0  0999 V2000
    9.4115   16.3523   18.5771 O   0  0  0  0  0  0  0  0  0  0  0  0
   10.3903   15.8512   19.1201 C   0  0  0  0  0  0  0  0  0  0  0  0
   11.2966   14.8155   18.4938 C   0  0  0  0  0  0  0  0  0  0  0  0
   12.4560   14.6757   19.4839 C   0  0  0  0  0  0  0  0  0  0  0  0
   11.9759   15.2407   20.8324 C   0  0  2  0  0  0  0  0  0  0  0  0
   11.4108   14.1415   21.7259 C   0  0  0  0  0  0  0  0  0  0  0  0
   12.4544   13.4241   22.5883 C   0  0  0  0  0  0  0  0  0  0  0  0
   11.6702   12.7077   23.6766 C   0  0  0  0  0  0  0  0  0  0  0  0
   11.5606   13.2555   24.7609 O   0  0  0  0  0  0  0  0  0  0  0  0
   10.8471   11.6369   23.3462 N   0  0  0  0  0  0  0  0  0  0  0  0
    9.6768   11.2673   24.0666 C   0  0  0  0  0  0  0  0  0  0  0  0
    9.0526   12.2517   24.8339 C   0  0  0  0  0  0  0  0  0  0  0  0
    7.8800   11.9512   25.5238 C   0  0  0  0  0  0  0  0  0  0  0  0
    7.2276   12.9328   26.2863 C   0  0  0  0  0  0  0  0  0  0  0  0
    6.0502   12.6091   26.9693 C   0  0  0  0  0  0  0  0  0  0  0  0
    5.5236   11.3170   26.8979 C   0  0  0  0  0  0  0  0  0  0  0  0
    3.9359   10.8736   27.8643 Br  0  0  0  0  0  0  0  0  0  0  0  0
    6.1726   10.3508   26.1222 C   0  0  0  0  0  0  0  0  0  0  0  0
    7.3510   10.6457   25.4353 C   0  0  0  0  0  0  0  0  0  0  0  0
    7.9421    9.6781   24.7121 N   0  0  0  0  0  0  0  0  0  0  0  0
    9.0746    9.9769   24.0371 C   0  0  0  0  0  0  0  0  0  0  0  0
    9.8160    8.7074   23.0963 Cl  0  0  0  0  0  0  0  0  0  0  0  0
   10.8258   16.2003   20.5220 C   0  0  0  0  0  0  0  0  0  0  0  0
  1  2  2  0
  2  3  1  0
  3  4  1  0
  4  5  1  0
  5  6  1  1
  6  7  1  0
  7  8  1  0
  8  9  2  0
  8 10  1  0
 10 11  1  0
 11 12  2  0
 12 13  1  0
 13 14  2  0
 14 15  1  0
 15 16  2  0
 16 17  1  0
 16 18  1  0
 18 19  2  0
 19 20  1  0
 20 21  2  0
 21 22  1  0
  5 23  1  0
 23  2  1  0
 21 11  1  0
 19 13  1  0
M  END
>  <cnnaffinity>  (29) 
-6.09631

>  <cnnaffinityIC50>  (29) 
801.1060286645322 nanomolar

>  <smiles>  (29) 
O=C1CCC(CCC(=O)NC2=CC3=CC=C(Br)C=C3N=C2Cl)C1

>  <origin>  (29) 
x1097_x0310.sdf

>  <ref_pdb>  (29) 
x0310

>  <butcher #BAD>  (29) 
5

>  <butcher #GOOD>  (29) 
18

>  <butcher #protein clash>  (29) 
1

>  <butcher #solvent space>  (29) 
4

>  <butcher #pocket>  (29) 
18

>  <butcher #P1>  (29) 
14

>  <butcher #P2>  (29) 
4

>  <butcher #P1'>  (29) 
0

>  <butcher #P2'>  (29) 
0

>  <butcher #P3>  (29) 
0

>  <butcher #P4>  (29) 
0

>  <butcher #P5>  (29) 
0

>  <butcher #P6>  (29) 
0

>  <ref_mols>  (29) 
A71x0310a

$$$$
PV-005653042228
     RDKit          3D

 21 23  0  0  0  0  0  0  0  0999 V2000
   11.6883   13.8923   24.7933 O   0  0  0  0  0  0  0  0  0  0  0  0
   11.7425   13.5089   23.6415 C   0  0  0  0  0  0  0  0  0  0  0  0
   12.7313   14.1024   22.6401 C   0  0  0  0  0  0  0  0  0  0  0  0
   12.0939   14.4668   21.3916 N   0  0  0  0  0  0  0  0  0  0  0  0
   11.1091   15.3818   21.2548 C   0  0  0  0  0  0  0  0  0  0  0  0
   10.7466   15.3540   19.9294 C   0  0  0  0  0  0  0  0  0  0  0  0
    9.5596   16.3449   19.1764 Cl  0  0  0  0  0  0  0  0  0  0  0  0
   11.5791   14.3822   19.3365 C   0  0  0  0  0  0  0  0  0  0  0  0
   12.3974   13.8622   20.2376 N   0  0  0  0  0  0  0  0  0  0  0  0
   10.9286   12.5228   23.1440 N   0  0  0  0  0  0  0  0  0  0  0  0
    9.8195   12.0716   23.8699 C   0  0  0  0  0  0  0  0  0  0  0  0
    9.0729   12.9418   24.6159 C   0  0  0  0  0  0  0  0  0  0  0  0
    7.9853   12.4676   25.3724 C   0  0  0  0  0  0  0  0  0  0  0  0
    7.2050   13.3304   26.1830 C   0  0  0  0  0  0  0  0  0  0  0  0
    6.1798   12.8212   26.9330 C   0  0  0  0  0  0  0  0  0  0  0  0
    5.8954   11.4323   26.8980 C   0  0  0  0  0  0  0  0  0  0  0  0
    6.6288   10.5847   26.1057 C   0  0  0  0  0  0  0  0  0  0  0  0
    7.6999   11.0870   25.3260 C   0  0  0  0  0  0  0  0  0  0  0  0
    8.4270   10.2266   24.5478 N   0  0  0  0  0  0  0  0  0  0  0  0
    9.4104   10.7041   23.8587 C   0  0  0  0  0  0  0  0  0  0  0  0
   10.2833    9.5896   22.8419 Cl  0  0  0  0  0  0  0  0  0  0  0  0
  1  2  2  0
  2  3  1  0
  3  4  1  0
  4  5  1  0
  5  6  2  0
  6  7  1  0
  6  8  1  0
  8  9  2  0
  2 10  1  0
 10 11  1  0
 11 12  2  0
 12 13  1  0
 13 14  2  0
 14 15  1  0
 15 16  2  0
 16 17  1  0
 17 18  2  0
 18 19  1  0
 19 20  2  0
 20 21  1  0
  9  4  1  0
 20 11  1  0
 18 13  1  0
M  END
>  <cnnaffinity>  (30) 
-6.07597

>  <cnnaffinityIC50>  (30) 
839.5179763638066 nanomolar

>  <smiles>  (30) 
O=C(CN1C=C(Cl)C=N1)NC1=CC2=CC=CC=C2N=C1Cl

>  <origin>  (30) 
x1097_x0310.sdf

>  <ref_pdb>  (30) 
x0310

>  <butcher #BAD>  (30) 
3

>  <butcher #GOOD>  (30) 
18

>  <butcher #protein clash>  (30) 
0

>  <butcher #solvent space>  (30) 
3

>  <butcher #pocket>  (30) 
18

>  <butcher #P1>  (30) 
12

>  <butcher #P2>  (30) 
4

>  <butcher #P1'>  (30) 
2

>  <butcher #P2'>  (30) 
0

>  <butcher #P3>  (30) 
0

>  <butcher #P4>  (30) 
0

>  <butcher #P5>  (30) 
0

>  <butcher #P6>  (30) 
0

>  <ref_mols>  (30) 
A71x0310a

$$$$
Z4048899221
     RDKit          3D

 22 25  0  0  0  0  0  0  0  0999 V2000
   12.8768   13.4589   19.3920 N   0  0  0  0  0  0  0  0  0  0  0  0
   12.5165   13.4852   20.4912 C   0  0  0  0  0  0  0  0  0  0  0  0
   11.9922   13.6483   21.8233 C   0  0  1  0  0  0  0  0  0  0  0  0
   10.5755   13.1580   22.0492 C   0  0  0  0  0  0  0  0  0  0  0  0
    9.5988   13.7992   21.7223 O   0  0  0  0  0  0  0  0  0  0  0  0
   10.4777   11.9427   22.6981 N   0  0  0  0  0  0  0  0  0  0  0  0
    9.4211   11.6308   23.5674 C   0  0  0  0  0  0  0  0  0  0  0  0
    8.7089   12.6055   24.2158 C   0  0  0  0  0  0  0  0  0  0  0  0
    7.7523   12.2535   25.1885 C   0  0  0  0  0  0  0  0  0  0  0  0
    7.0616   13.2303   25.9518 C   0  0  0  0  0  0  0  0  0  0  0  0
    6.1654   12.8481   26.9142 C   0  0  0  0  0  0  0  0  0  0  0  0
    5.9147   11.4711   27.1386 C   0  0  0  0  0  0  0  0  0  0  0  0
    6.5625   10.5118   26.4048 C   0  0  0  0  0  0  0  0  0  0  0  0
    7.5079   10.8832   25.4160 C   0  0  0  0  0  0  0  0  0  0  0  0
    8.1725    9.9083   24.7171 N   0  0  0  0  0  0  0  0  0  0  0  0
    9.0730   10.2735   23.8679 C   0  0  0  0  0  0  0  0  0  0  0  0
    9.9148    9.0104   23.0050 Cl  0  0  0  0  0  0  0  0  0  0  0  0
   12.8838   13.7753   23.0562 C   0  0  0  0  0  0  0  0  0  0  0  0
   12.3670   14.9933   22.3799 C   0  0  0  0  0  0  0  0  0  0  0  0
   11.3767   16.0207   22.8439 C   0  0  0  0  0  0  0  0  0  0  0  0
   12.2433   17.0948   22.1618 C   0  0  0  0  0  0  0  0  0  0  0  0
   13.1953   16.0105   21.6259 C   0  0  0  0  0  0  0  0  0  0  0  0
  1  2  3  0
  3  2  1  6
  3  4  1  0
  4  5  2  0
  4  6  1  0
  6  7  1  0
  7  8  2  0
  8  9  1  0
  9 10  2  0
 10 11  1  0
 11 12  2  0
 12 13  1  0
 13 14  2  0
 14 15  1  0
 15 16  2  0
 16 17  1  0
  3 18  1  0
 18 19  1  0
 19 20  1  0
 20 21  1  0
 21 22  1  0
 19  3  1  0
 16  7  1  0
 22 19  1  0
 14  9  1  0
M  END
>  <cnnaffinity>  (31) 
-6.06683

>  <cnnaffinityIC50>  (31) 
857.3733893350019 nanomolar

>  <smiles>  (31) 
N#CC1(C(=O)NC2=CC3=CC=CC=C3N=C2Cl)CC12CCC2

>  <origin>  (31) 
x1097_x0310.sdf

>  <ref_pdb>  (31) 
x0310

>  <butcher #BAD>  (31) 
7

>  <butcher #GOOD>  (31) 
15

>  <butcher #protein clash>  (31) 
4

>  <butcher #solvent space>  (31) 
3

>  <butcher #pocket>  (31) 
15

>  <butcher #P1>  (31) 
13

>  <butcher #P2>  (31) 
0

>  <butcher #P1'>  (31) 
2

>  <butcher #P2'>  (31) 
0

>  <butcher #P3>  (31) 
0

>  <butcher #P4>  (31) 
0

>  <butcher #P5>  (31) 
0

>  <butcher #P6>  (31) 
0

>  <ref_mols>  (31) 
A71x0310a

$$$$
Z4666025435
     RDKit          3D

 23 26  0  0  0  0  0  0  0  0999 V2000
    9.4317   14.2736   22.0161 O   0  0  0  0  0  0  0  0  0  0  0  0
   10.5457   13.7606   21.9904 C   0  0  0  0  0  0  0  0  0  0  0  0
   10.7070   12.5136   22.5866 N   0  0  0  0  0  0  0  0  0  0  0  0
    9.7903   11.9669   23.5294 C   0  0  0  0  0  0  0  0  0  0  0  0
    9.0241   12.8824   24.2556 C   0  0  0  0  0  0  0  0  0  0  0  0
    8.0873   12.4299   25.1788 C   0  0  0  0  0  0  0  0  0  0  0  0
    7.3085   13.3430   25.9037 C   0  0  0  0  0  0  0  0  0  0  0  0
    6.3084   12.8740   26.7599 C   0  0  0  0  0  0  0  0  0  0  0  0
    6.1025   11.5014   26.9156 C   0  0  0  0  0  0  0  0  0  0  0  0
    6.9260   10.5967   26.2319 C   0  0  0  0  0  0  0  0  0  0  0  0
    7.9191   11.0408   25.3543 C   0  0  0  0  0  0  0  0  0  0  0  0
    8.6650   10.1378   24.6936 N   0  0  0  0  0  0  0  0  0  0  0  0
    9.5876   10.5787   23.8081 C   0  0  0  0  0  0  0  0  0  0  0  0
   10.5706    9.2346   22.8645 Br  0  0  0  0  0  0  0  0  0  0  0  0
   11.7660   14.5790   21.4945 C   0  0  1  0  0  0  0  0  0  0  0  0
   12.3948   14.0901   20.1712 C   0  0  0  0  0  0  0  0  0  0  0  0
   11.4356   14.2101   18.9727 C   0  0  0  0  0  0  0  0  0  0  0  0
   10.5464   15.3627   19.0610 N   0  0  0  0  0  0  0  0  0  0  0  0
    9.5164   15.6594   18.2073 C   0  0  0  0  0  0  0  0  0  0  0  0
    8.9004   16.7283   18.6329 N   0  0  0  0  0  0  0  0  0  0  0  0
    9.4963   17.0812   19.8154 N   0  0  0  0  0  0  0  0  0  0  0  0
   10.4568   16.2359   20.1069 C   0  0  0  0  0  0  0  0  0  0  0  0
   11.4096   16.0725   21.2768 C   0  0  0  0  0  0  0  0  0  0  0  0
  1  2  2  0
  2  3  1  0
  3  4  1  0
  4  5  2  0
  5  6  1  0
  6  7  2  0
  7  8  1  0
  8  9  2  0
  9 10  1  0
 10 11  2  0
 11 12  1  0
 12 13  2  0
 13 14  1  0
 15  2  1  6
 15 16  1  0
 16 17  1  0
 17 18  1  0
 18 19  1  0
 19 20  2  0
 20 21  1  0
 21 22  2  0
 22 23  1  0
 13  4  1  0
 23 15  1  0
 11  6  1  0
 22 18  1  0
M  END
>  <cnnaffinity>  (32) 
-6.06033

>  <cnnaffinityIC50>  (32) 
870.3020369624551 nanomolar

>  <smiles>  (32) 
O=C(NC1=CC2=CC=CC=C2N=C1Br)C1CCN2C=NN=C2C1

>  <origin>  (32) 
x1097_x0310.sdf

>  <ref_pdb>  (32) 
x0310

>  <butcher #BAD>  (32) 
5

>  <butcher #GOOD>  (32) 
18

>  <butcher #protein clash>  (32) 
3

>  <butcher #solvent space>  (32) 
2

>  <butcher #pocket>  (32) 
18

>  <butcher #P1>  (32) 
14

>  <butcher #P2>  (32) 
4

>  <butcher #P1'>  (32) 
0

>  <butcher #P2'>  (32) 
0

>  <butcher #P3>  (32) 
0

>  <butcher #P4>  (32) 
0

>  <butcher #P5>  (32) 
0

>  <butcher #P6>  (32) 
0

>  <ref_mols>  (32) 
A71x0310a

$$$$
Z4383247654
     RDKit          3D

 23 26  0  0  0  0  0  0  0  0999 V2000
    9.9142   13.9628   22.4926 O   0  0  0  0  0  0  0  0  0  0  0  0
   10.8586   13.1865   22.3686 C   0  0  0  0  0  0  0  0  0  0  0  0
   10.7880   11.9519   23.0151 N   0  0  0  0  0  0  0  0  0  0  0  0
    9.7244   11.5580   23.8706 C   0  0  0  0  0  0  0  0  0  0  0  0
    9.0181   12.5594   24.5423 C   0  0  0  0  0  0  0  0  0  0  0  0
    7.9651   12.2134   25.3877 C   0  0  0  0  0  0  0  0  0  0  0  0
    7.2568   13.1960   26.0992 C   0  0  0  0  0  0  0  0  0  0  0  0
    6.1958   12.8253   26.9323 C   0  0  0  0  0  0  0  0  0  0  0  0
    5.8232   11.4833   27.0448 C   0  0  0  0  0  0  0  0  0  0  0  0
    6.5376   10.5092   26.3366 C   0  0  0  0  0  0  0  0  0  0  0  0
    7.6188   10.8508   25.5209 C   0  0  0  0  0  0  0  0  0  0  0  0
    8.2917    9.8715   24.8922 N   0  0  0  0  0  0  0  0  0  0  0  0
    9.3306   10.2086   24.0968 C   0  0  0  0  0  0  0  0  0  0  0  0
   10.2463    8.7886   23.1992 Br  0  0  0  0  0  0  0  0  0  0  0  0
   12.1143   13.6153   21.5602 C   0  0  2  0  0  0  0  0  0  0  0  0
   12.9800   14.5290   22.4579 C   0  0  0  0  0  0  0  0  0  0  0  0
   12.2281   15.8452   22.7269 C   0  0  0  0  0  0  0  0  0  0  0  0
   12.0560   16.5896   21.3985 C   0  0  0  0  0  0  0  0  0  0  0  0
   11.4072   15.7093   20.3659 C   0  0  0  0  0  0  0  0  0  0  0  0
   10.6445   15.9843   19.3334 N   0  0  0  0  0  0  0  0  0  0  0  0
   10.6996   14.9116   18.4858 N   0  0  0  0  0  0  0  0  0  0  0  0
   11.4420   13.9975   19.0532 C   0  0  0  0  0  0  0  0  0  0  0  0
   11.7701   14.3944   20.3325 N   0  0  0  0  0  0  0  0  0  0  0  0
  1  2  2  0
  2  3  1  0
  3  4  1  0
  4  5  2  0
  5  6  1  0
  6  7  2  0
  7  8  1  0
  8  9  2  0
  9 10  1  0
 10 11  2  0
 11 12  1  0
 12 13  2  0
 13 14  1  0
 15  2  1  1
 15 16  1  0
 16 17  1  0
 17 18  1  0
 18 19  1  0
 19 20  2  0
 20 21  1  0
 21 22  2  0
 22 23  1  0
 13  4  1  0
 23 15  1  0
 11  6  1  0
 23 19  1  0
M  END
>  <cnnaffinity>  (33) 
-6.0532

>  <cnnaffinityIC50>  (33) 
884.70809287053 nanomolar

>  <smiles>  (33) 
O=C(NC1=CC2=CC=CC=C2N=C1Br)C1CCCC2=NN=CN21

>  <origin>  (33) 
x1097_x0310.sdf

>  <ref_pdb>  (33) 
x0310

>  <butcher #BAD>  (33) 
4

>  <butcher #GOOD>  (33) 
19

>  <butcher #protein clash>  (33) 
1

>  <butcher #solvent space>  (33) 
3

>  <butcher #pocket>  (33) 
19

>  <butcher #P1>  (33) 
13

>  <butcher #P2>  (33) 
4

>  <butcher #P1'>  (33) 
2

>  <butcher #P2'>  (33) 
0

>  <butcher #P3>  (33) 
0

>  <butcher #P4>  (33) 
0

>  <butcher #P5>  (33) 
0

>  <butcher #P6>  (33) 
0

>  <ref_mols>  (33) 
A71x0310a

$$$$
Z3714463543
     RDKit          3D

 23 25  0  0  0  0  0  0  0  0999 V2000
    5.2780   13.7662   27.9213 C   0  0  0  0  0  0  0  0  0  0  0  0
    6.0759   12.7797   27.1038 C   0  0  0  0  0  0  0  0  0  0  0  0
    7.1413   13.1873   26.3397 C   0  0  0  0  0  0  0  0  0  0  0  0
    7.9028   12.2648   25.5770 C   0  0  0  0  0  0  0  0  0  0  0  0
    8.9526   12.6885   24.7385 C   0  0  0  0  0  0  0  0  0  0  0  0
    9.6478   11.7525   24.0180 C   0  0  0  0  0  0  0  0  0  0  0  0
   10.6770   12.1016   23.1259 N   0  0  0  0  0  0  0  0  0  0  0  0
   10.7620   13.3376   22.5244 C   0  0  0  0  0  0  0  0  0  0  0  0
    9.8388   14.1232   22.5686 O   0  0  0  0  0  0  0  0  0  0  0  0
   12.1126   13.6812   21.9084 C   0  0  1  0  0  0  0  0  0  0  0  0
   11.9242   14.1712   20.5017 C   0  0  0  0  0  0  0  0  0  0  0  0
   10.7419   14.2713   19.9149 N   0  0  0  0  0  0  0  0  0  0  0  0
   11.0791   14.7418   18.6971 N   0  0  0  0  0  0  0  0  0  0  0  0
   12.4072   14.9226   18.6100 C   0  0  0  0  0  0  0  0  0  0  0  0
   12.9812   14.5818   19.7452 N   0  0  0  0  0  0  0  0  0  0  0  0
   12.8411   14.7512   22.7614 C   0  0  0  0  0  0  0  0  0  0  0  0
   12.0321   16.0452   22.8157 C   0  0  0  0  0  0  0  0  0  0  0  0
   13.1210   14.2166   24.1617 C   0  0  0  0  0  0  0  0  0  0  0  0
    9.3304   10.3766   24.2071 C   0  0  0  0  0  0  0  0  0  0  0  0
    8.3403    9.9545   24.9497 N   0  0  0  0  0  0  0  0  0  0  0  0
    7.5957   10.8884   25.6220 C   0  0  0  0  0  0  0  0  0  0  0  0
    6.4742   10.4830   26.3901 C   0  0  0  0  0  0  0  0  0  0  0  0
    5.7395   11.3974   27.0981 C   0  0  0  0  0  0  0  0  0  0  0  0
  1  2  1  0
  2  3  2  0
  3  4  1  0
  4  5  2  0
  5  6  1  0
  6  7  1  0
  7  8  1  0
  8  9  2  0
  8 10  1  0
 10 11  1  0
 11 12  2  0
 12 13  1  0
 13 14  1  0
 14 15  2  0
 10 16  1  1
 16 17  1  0
 16 18  1  0
  6 19  2  0
 19 20  1  0
 20 21  2  0
 21 22  1  0
 22 23  2  0
 23  2  1  0
 21  4  1  0
 15 11  1  0
M  END
>  <cnnaffinity>  (34) 
-6.05234

>  <cnnaffinityIC50>  (34) 
886.4617480848485 nanomolar

>  <smiles>  (34) 
CC1=CC2=CC(NC(=O)C(C3=NNC=N3)C(C)C)=CN=C2C=C1

>  <origin>  (34) 
x1097_x0310.sdf

>  <ref_pdb>  (34) 
x0310

>  <butcher #BAD>  (34) 
6

>  <butcher #GOOD>  (34) 
17

>  <butcher #protein clash>  (34) 
2

>  <butcher #solvent space>  (34) 
4

>  <butcher #pocket>  (34) 
17

>  <butcher #P1>  (34) 
12

>  <butcher #P2>  (34) 
2

>  <butcher #P1'>  (34) 
3

>  <butcher #P2'>  (34) 
0

>  <butcher #P3>  (34) 
0

>  <butcher #P4>  (34) 
0

>  <butcher #P5>  (34) 
0

>  <butcher #P6>  (34) 
0

>  <ref_mols>  (34) 
A71x0310a

$$$$
PV-005417263170
     RDKit          3D

 21 23  0  0  0  0  0  0  0  0999 V2000
   12.6034   15.0346   23.2969 C   0  0  0  0  0  0  0  0  0  0  0  0
   11.5210   15.0657   22.1988 C   0  0  2  0  0  0  0  0  0  0  0  0
   10.2893   14.2434   22.5796 C   0  0  0  0  0  0  0  0  0  0  0  0
    9.1866   14.7499   22.5607 O   0  0  0  0  0  0  0  0  0  0  0  0
   10.5080   12.9324   22.9657 N   0  0  0  0  0  0  0  0  0  0  0  0
    9.6239   12.3065   23.8556 C   0  0  0  0  0  0  0  0  0  0  0  0
    8.9085   13.0751   24.7411 C   0  0  0  0  0  0  0  0  0  0  0  0
    7.9124   12.5008   25.5484 C   0  0  0  0  0  0  0  0  0  0  0  0
    7.1006   13.2896   26.4021 C   0  0  0  0  0  0  0  0  0  0  0  0
    6.0941   12.7059   27.1235 C   0  0  0  0  0  0  0  0  0  0  0  0
    5.8755   11.3100   27.0216 C   0  0  0  0  0  0  0  0  0  0  0  0
    6.6597   10.5319   26.2093 C   0  0  0  0  0  0  0  0  0  0  0  0
    7.7032   11.1125   25.4469 C   0  0  0  0  0  0  0  0  0  0  0  0
    8.4771   10.3262   24.6327 N   0  0  0  0  0  0  0  0  0  0  0  0
    9.3855   10.8942   23.9093 C   0  0  0  0  0  0  0  0  0  0  0  0
   10.3819    9.8548   22.9181 Cl  0  0  0  0  0  0  0  0  0  0  0  0
   12.0274   14.6101   20.8716 C   0  0  0  0  0  0  0  0  0  0  0  0
   12.6845   13.4828   20.6707 N   0  0  0  0  0  0  0  0  0  0  0  0
   12.9641   13.5809   19.3759 N   0  0  0  0  0  0  0  0  0  0  0  0
   12.5246   14.6753   18.8032 N   0  0  0  0  0  0  0  0  0  0  0  0
   11.9136   15.3391   19.7395 N   0  0  0  0  0  0  0  0  0  0  0  0
  2  1  1  1
  2  3  1  0
  3  4  2  0
  3  5  1  0
  5  6  1  0
  6  7  2  0
  7  8  1  0
  8  9  2  0
  9 10  1  0
 10 11  2  0
 11 12  1  0
 12 13  2  0
 13 14  1  0
 14 15  2  0
 15 16  1  0
  2 17  1  0
 17 18  2  0
 18 19  1  0
 19 20  1  0
 20 21  2  0
 15  6  1  0
 21 17  1  0
 13  8  1  0
M  END
>  <cnnaffinity>  (35) 
-6.0489

>  <cnnaffinityIC50>  (35) 
893.5111986052202 nanomolar

>  <smiles>  (35) 
CC(C(=O)NC1=CC2=CC=CC=C2N=C1Cl)C1=NNN=N1

>  <origin>  (35) 
x1097_x0310.sdf

>  <ref_pdb>  (35) 
x0310

>  <butcher #BAD>  (35) 
5

>  <butcher #GOOD>  (35) 
16

>  <butcher #protein clash>  (35) 
3

>  <butcher #solvent space>  (35) 
2

>  <butcher #pocket>  (35) 
16

>  <butcher #P1>  (35) 
12

>  <butcher #P2>  (35) 
3

>  <butcher #P1'>  (35) 
1

>  <butcher #P2'>  (35) 
0

>  <butcher #P3>  (35) 
0

>  <butcher #P4>  (35) 
0

>  <butcher #P5>  (35) 
0

>  <butcher #P6>  (35) 
0

>  <ref_mols>  (35) 
A71x0310a

$$$$
Z3358472738
     RDKit          3D

 23 26  0  0  0  0  0  0  0  0999 V2000
    9.7628   13.4238   21.7185 O   0  0  0  0  0  0  0  0  0  0  0  0
   10.7775   13.0361   22.2590 C   0  0  0  0  0  0  0  0  0  0  0  0
   12.1512   13.6294   21.9283 C   0  0  0  0  0  0  0  0  0  0  0  0
   12.9502   13.9434   23.1564 C   0  0  0  0  0  0  0  0  0  0  0  0
   12.8237   15.0753   23.8207 N   0  0  0  0  0  0  0  0  0  0  0  0
   13.6397   14.8652   24.8841 N   0  0  0  0  0  0  0  0  0  0  0  0
   14.2297   13.6571   24.8065 C   0  0  0  0  0  0  0  0  0  0  0  0
   15.1968   13.1615   25.8095 C   0  0  0  0  0  0  0  0  0  0  0  0
   16.6655   13.5179   25.7323 C   0  0  0  0  0  0  0  0  0  0  0  0
   16.1995   12.1445   25.3638 C   0  0  0  0  0  0  0  0  0  0  0  0
   13.7758   13.0269   23.7282 N   0  0  0  0  0  0  0  0  0  0  0  0
   10.7657   12.0259   23.2009 N   0  0  0  0  0  0  0  0  0  0  0  0
    9.5784   11.7952   23.9554 C   0  0  0  0  0  0  0  0  0  0  0  0
    9.0272   10.4872   24.0566 C   0  0  0  0  0  0  0  0  0  0  0  0
    7.9462   10.2056   24.7404 N   0  0  0  0  0  0  0  0  0  0  0  0
    7.3455   11.2124   25.4369 C   0  0  0  0  0  0  0  0  0  0  0  0
    6.1619   10.9623   26.1887 C   0  0  0  0  0  0  0  0  0  0  0  0
    5.6158    9.7438   26.1181 F   0  0  0  0  0  0  0  0  0  0  0  0
    5.5845   11.9190   26.9768 C   0  0  0  0  0  0  0  0  0  0  0  0
    6.1705   13.2055   27.0500 C   0  0  0  0  0  0  0  0  0  0  0  0
    7.2772   13.5092   26.3070 C   0  0  0  0  0  0  0  0  0  0  0  0
    7.8594   12.5300   25.4627 C   0  0  0  0  0  0  0  0  0  0  0  0
    8.9677   12.8114   24.6342 C   0  0  0  0  0  0  0  0  0  0  0  0
  1  2  2  0
  2  3  1  0
  3  4  1  0
  4  5  2  0
  5  6  1  0
  6  7  1  0
  7  8  1  0
  8  9  1  0
  9 10  1  0
  7 11  2  0
  2 12  1  0
 12 13  1  0
 13 14  2  0
 14 15  1  0
 15 16  2  0
 16 17  1  0
 17 18  1  0
 17 19  2  0
 19 20  1  0
 20 21  2  0
 21 22  1  0
 22 23  2  0
 11  4  1  0
 23 13  1  0
 10  8  1  0
 22 16  1  0
M  END
>  <cnnaffinity>  (36) 
-6.0441

>  <cnnaffinityIC50>  (36) 
903.4414246950012 nanomolar

>  <smiles>  (36) 
O=C(CC1=NNC(C2CC2)=N1)NC1=CN=C2C(F)=CC=CC2=C1

>  <origin>  (36) 
x1097_x0310.sdf

>  <ref_pdb>  (36) 
x0310

>  <butcher #BAD>  (36) 
4

>  <butcher #GOOD>  (36) 
19

>  <butcher #protein clash>  (36) 
1

>  <butcher #solvent space>  (36) 
3

>  <butcher #pocket>  (36) 
19

>  <butcher #P1>  (36) 
12

>  <butcher #P2>  (36) 
0

>  <butcher #P1'>  (36) 
5

>  <butcher #P2'>  (36) 
2

>  <butcher #P3>  (36) 
0

>  <butcher #P4>  (36) 
0

>  <butcher #P5>  (36) 
0

>  <butcher #P6>  (36) 
0

>  <ref_mols>  (36) 
A71x0310a

$$$$
Z2673144643
     RDKit          3D

 23 25  0  0  0  0  0  0  0  0999 V2000
   11.6915   16.8974   23.5310 N   0  0  0  0  0  0  0  0  0  0  0  0
   11.8265   16.0554   22.7353 C   0  0  0  0  0  0  0  0  0  0  0  0
   11.9601   14.9768   21.7284 C   0  0  0  0  0  0  0  0  0  0  0  0
   12.5624   13.7071   22.3581 C   0  0  0  0  0  0  0  0  0  0  0  0
   11.6421   13.1431   23.4270 C   0  0  0  0  0  0  0  0  0  0  0  0
   11.5084   13.7481   24.4806 O   0  0  0  0  0  0  0  0  0  0  0  0
   10.8522   12.0465   23.1222 N   0  0  0  0  0  0  0  0  0  0  0  0
    9.7661   11.6163   23.9157 C   0  0  0  0  0  0  0  0  0  0  0  0
    9.0980   12.5891   24.6593 C   0  0  0  0  0  0  0  0  0  0  0  0
    8.0101   12.2254   25.4476 C   0  0  0  0  0  0  0  0  0  0  0  0
    7.2940   13.1815   26.1815 C   0  0  0  0  0  0  0  0  0  0  0  0
    6.2038   12.7924   26.9661 C   0  0  0  0  0  0  0  0  0  0  0  0
    5.8294   11.4474   27.0273 C   0  0  0  0  0  0  0  0  0  0  0  0
    6.5408   10.4958   26.2879 C   0  0  0  0  0  0  0  0  0  0  0  0
    7.6271   10.8674   25.4906 C   0  0  0  0  0  0  0  0  0  0  0  0
    8.2636    9.9189   24.7828 N   0  0  0  0  0  0  0  0  0  0  0  0
    9.3068   10.2730   24.0032 C   0  0  0  0  0  0  0  0  0  0  0  0
   10.1815    8.8882   23.0097 Br  0  0  0  0  0  0  0  0  0  0  0  0
   10.5586   14.6201   21.1684 C   0  0  0  0  0  0  0  0  0  0  0  0
   10.2092   15.4976   19.9691 C   0  0  0  0  0  0  0  0  0  0  0  0
   11.1432   15.1455   18.7986 C   0  0  0  0  0  0  0  0  0  0  0  0
   12.5729   14.7918   19.2602 C   0  0  0  0  0  0  0  0  0  0  0  0
   12.9176   15.4524   20.6083 C   0  0  0  0  0  0  0  0  0  0  0  0
  1  2  3  0
  2  3  1  0
  3  4  1  0
  4  5  1  0
  5  6  2  0
  5  7  1  0
  7  8  1  0
  8  9  2  0
  9 10  1  0
 10 11  2  0
 11 12  1  0
 12 13  2  0
 13 14  1  0
 14 15  2  0
 15 16  1  0
 16 17  2  0
 17 18  1  0
  3 19  1  0
 19 20  1  0
 20 21  1  0
 21 22  1  0
 22 23  1  0
 23  3  1  0
 17  8  1  0
 15 10  1  0
M  END
>  <cnnaffinity>  (37) 
-6.03949

>  <cnnaffinityIC50>  (37) 
913.0824595517249 nanomolar

>  <smiles>  (37) 
N#CC1(CC(=O)NC2=CC3=CC=CC=C3N=C2Br)CCCCC1

>  <origin>  (37) 
x1097_x0310.sdf

>  <ref_pdb>  (37) 
x0310

>  <butcher #BAD>  (37) 
5

>  <butcher #GOOD>  (37) 
18

>  <butcher #protein clash>  (37) 
1

>  <butcher #solvent space>  (37) 
4

>  <butcher #pocket>  (37) 
18

>  <butcher #P1>  (37) 
12

>  <butcher #P2>  (37) 
4

>  <butcher #P1'>  (37) 
2

>  <butcher #P2'>  (37) 
0

>  <butcher #P3>  (37) 
0

>  <butcher #P4>  (37) 
0

>  <butcher #P5>  (37) 
0

>  <butcher #P6>  (37) 
0

>  <ref_mols>  (37) 
A71x0310a

$$$$
Z4048901005
     RDKit          3D

 23 25  0  0  0  0  0  0  0  0999 V2000
   13.5498   15.4017   21.7274 C   0  0  0  0  0  0  0  0  0  0  0  0
   12.3871   15.0755   22.6514 C   0  0  0  0  0  0  0  0  0  0  0  0
   11.0464   15.1674   21.9119 C   0  0  0  0  0  0  0  0  0  0  0  0
   12.5464   13.6546   23.2078 C   0  0  2  0  0  0  0  0  0  0  0  0
   11.3529   13.3427   24.1026 C   0  0  0  0  0  0  0  0  0  0  0  0
   11.0829   14.0273   25.0697 O   0  0  0  0  0  0  0  0  0  0  0  0
   10.5938   12.2735   23.6882 N   0  0  0  0  0  0  0  0  0  0  0  0
    9.4244   11.8662   24.3302 C   0  0  0  0  0  0  0  0  0  0  0  0
    8.6156   12.7543   24.9901 C   0  0  0  0  0  0  0  0  0  0  0  0
    7.4726   12.2860   25.6650 C   0  0  0  0  0  0  0  0  0  0  0  0
    6.6377   13.1542   26.4126 C   0  0  0  0  0  0  0  0  0  0  0  0
    5.5378   12.6615   27.0643 C   0  0  0  0  0  0  0  0  0  0  0  0
    5.2288   11.2813   26.9843 C   0  0  0  0  0  0  0  0  0  0  0  0
    6.0276   10.4225   26.2766 C   0  0  0  0  0  0  0  0  0  0  0  0
    7.1754   10.9085   25.6044 C   0  0  0  0  0  0  0  0  0  0  0  0
    7.9689   10.0294   24.9158 N   0  0  0  0  0  0  0  0  0  0  0  0
    9.0149   10.4922   24.3221 C   0  0  0  0  0  0  0  0  0  0  0  0
    9.9962    9.3523   23.4229 Cl  0  0  0  0  0  0  0  0  0  0  0  0
   13.7700   13.3679   23.9572 N   0  0  0  0  0  0  0  0  0  0  0  0
   14.4684   14.0936   24.8486 C   0  0  0  0  0  0  0  0  0  0  0  0
   15.4302   13.3749   25.3908 N   0  0  0  0  0  0  0  0  0  0  0  0
   15.2616   12.1691   24.7809 C   0  0  0  0  0  0  0  0  0  0  0  0
   14.2597   12.1073   23.9313 N   0  0  0  0  0  0  0  0  0  0  0  0
  1  2  1  0
  2  3  1  0
  4  2  1  1
  4  5  1  0
  5  6  2  0
  5  7  1  0
  7  8  1  0
  8  9  2  0
  9 10  1  0
 10 11  2  0
 11 12  1  0
 12 13  2  0
 13 14  1  0
 14 15  2  0
 15 16  1  0
 16 17  2  0
 17 18  1  0
  4 19  1  0
 19 20  1  0
 20 21  2  0
 21 22  1  0
 22 23  2  0
 17  8  1  0
 23 19  1  0
 15 10  1  0
M  END
>  <cnnaffinity>  (38) 
-6.03719

>  <cnnaffinityIC50>  (38) 
917.9309219545733 nanomolar

>  <smiles>  (38) 
CC(C)C(C(=O)NC1=CC2=CC=CC=C2N=C1Cl)N1C=NC=N1

>  <origin>  (38) 
x1097_x0310.sdf

>  <ref_pdb>  (38) 
x0310

>  <butcher #BAD>  (38) 
3

>  <butcher #GOOD>  (38) 
20

>  <butcher #protein clash>  (38) 
1

>  <butcher #solvent space>  (38) 
2

>  <butcher #pocket>  (38) 
20

>  <butcher #P1>  (38) 
12

>  <butcher #P2>  (38) 
1

>  <butcher #P1'>  (38) 
6

>  <butcher #P2'>  (38) 
1

>  <butcher #P3>  (38) 
0

>  <butcher #P4>  (38) 
0

>  <butcher #P5>  (38) 
0

>  <butcher #P6>  (38) 
0

>  <ref_mols>  (38) 
A71x0310a

$$$$
Z3867944408
     RDKit          3D

 23 26  0  0  0  0  0  0  0  0999 V2000
    9.5115   13.8330   21.5151 O   0  0  0  0  0  0  0  0  0  0  0  0
   10.6529   13.4143   21.6913 C   0  0  0  0  0  0  0  0  0  0  0  0
   10.8518   12.2568   22.4340 N   0  0  0  0  0  0  0  0  0  0  0  0
    9.9270   11.8096   23.4032 C   0  0  0  0  0  0  0  0  0  0  0  0
    9.1494   12.7769   24.0382 C   0  0  0  0  0  0  0  0  0  0  0  0
    8.2207   12.3833   24.9953 C   0  0  0  0  0  0  0  0  0  0  0  0
    7.4272   13.3378   25.6472 C   0  0  0  0  0  0  0  0  0  0  0  0
    6.4379   12.9322   26.5472 C   0  0  0  0  0  0  0  0  0  0  0  0
    5.3007   14.2277   27.3749 Br  0  0  0  0  0  0  0  0  0  0  0  0
    6.2683   11.5702   26.8194 C   0  0  0  0  0  0  0  0  0  0  0  0
    7.0963   10.6189   26.2041 C   0  0  0  0  0  0  0  0  0  0  0  0
    8.0752   11.0091   25.2878 C   0  0  0  0  0  0  0  0  0  0  0  0
    8.8322   10.0640   24.6995 N   0  0  0  0  0  0  0  0  0  0  0  0
    9.7431   10.4571   23.7836 C   0  0  0  0  0  0  0  0  0  0  0  0
   11.8633   14.3157   21.3469 C   0  0  1  0  0  0  0  0  0  0  0  0
   12.5579   13.9404   20.0160 C   0  0  0  0  0  0  0  0  0  0  0  0
   11.7091   14.2161   18.7561 C   0  0  0  0  0  0  0  0  0  0  0  0
   10.7532   15.3195   18.9334 N   0  0  0  0  0  0  0  0  0  0  0  0
    9.8595   15.7440   18.0206 N   0  0  0  0  0  0  0  0  0  0  0  0
    9.2560   16.7514   18.5343 N   0  0  0  0  0  0  0  0  0  0  0  0
    9.7007   16.9777   19.8026 N   0  0  0  0  0  0  0  0  0  0  0  0
   10.6069   16.0807   20.0610 C   0  0  0  0  0  0  0  0  0  0  0  0
   11.4627   15.8175   21.2789 C   0  0  0  0  0  0  0  0  0  0  0  0
  1  2  2  0
  2  3  1  0
  3  4  1  0
  4  5  2  0
  5  6  1  0
  6  7  2  0
  7  8  1  0
  8  9  1  0
  8 10  2  0
 10 11  1  0
 11 12  2  0
 12 13  1  0
 13 14  2  0
 15  2  1  6
 15 16  1  0
 16 17  1  0
 17 18  1  0
 18 19  1  0
 19 20  2  0
 20 21  1  0
 21 22  2  0
 22 23  1  0
 14  4  1  0
 23 15  1  0
 12  6  1  0
 22 18  1  0
M  END
>  <cnnaffinity>  (39) 
-6.03033

>  <cnnaffinityIC50>  (39) 
932.5454339928841 nanomolar

>  <smiles>  (39) 
O=C(NC1=CC2=CC(Br)=CC=C2N=C1)C1CCN2N=NN=C2C1

>  <origin>  (39) 
x1097_x0310.sdf

>  <ref_pdb>  (39) 
x0310

>  <butcher #BAD>  (39) 
6

>  <butcher #GOOD>  (39) 
17

>  <butcher #protein clash>  (39) 
2

>  <butcher #solvent space>  (39) 
4

>  <butcher #pocket>  (39) 
17

>  <butcher #P1>  (39) 
13

>  <butcher #P2>  (39) 
4

>  <butcher #P1'>  (39) 
0

>  <butcher #P2'>  (39) 
0

>  <butcher #P3>  (39) 
0

>  <butcher #P4>  (39) 
0

>  <butcher #P5>  (39) 
0

>  <butcher #P6>  (39) 
0

>  <ref_mols>  (39) 
A71x0310a

$$$$
Z3086180361
     RDKit          3D

 23 25  0  0  0  0  0  0  0  0999 V2000
   12.9993   14.9115   23.1687 C   0  0  0  0  0  0  0  0  0  0  0  0
   12.1650   15.0434   21.9071 C   0  0  1  0  0  0  0  0  0  0  0  0
   12.8524   15.7391   20.7276 C   0  0  0  0  0  0  0  0  0  0  0  0
   12.2381   15.0867   19.4854 C   0  0  0  0  0  0  0  0  0  0  0  0
   12.3687   15.4108   18.3251 O   0  0  0  0  0  0  0  0  0  0  0  0
   11.4916   14.0322   19.9353 N   0  0  0  0  0  0  0  0  0  0  0  0
   11.7364   13.6809   21.3166 C   0  0  2  0  0  0  0  0  0  0  0  0
   10.4900   13.1706   22.0341 C   0  0  0  0  0  0  0  0  0  0  0  0
    9.3789   13.5902   21.7959 O   0  0  0  0  0  0  0  0  0  0  0  0
   10.7137   12.2635   23.0536 N   0  0  0  0  0  0  0  0  0  0  0  0
    9.6745   11.9438   23.9585 C   0  0  0  0  0  0  0  0  0  0  0  0
    9.1409   10.6260   23.9974 C   0  0  0  0  0  0  0  0  0  0  0  0
    8.1001   10.2742   24.7034 N   0  0  0  0  0  0  0  0  0  0  0  0
    7.4884   11.2220   25.4667 C   0  0  0  0  0  0  0  0  0  0  0  0
    6.3029   10.8904   26.1723 C   0  0  0  0  0  0  0  0  0  0  0  0
    5.7778    9.6710   26.0532 F   0  0  0  0  0  0  0  0  0  0  0  0
    5.6634   11.8172   26.9519 C   0  0  0  0  0  0  0  0  0  0  0  0
    4.5433   11.4523   27.5901 F   0  0  0  0  0  0  0  0  0  0  0  0
    6.1547   13.1288   27.0720 C   0  0  0  0  0  0  0  0  0  0  0  0
    7.2933   13.4884   26.3975 C   0  0  0  0  0  0  0  0  0  0  0  0
    7.9651   12.5519   25.5726 C   0  0  0  0  0  0  0  0  0  0  0  0
    9.0958   12.8774   24.7868 C   0  0  0  0  0  0  0  0  0  0  0  0
    9.7757   14.4702   24.9209 Cl  0  0  0  0  0  0  0  0  0  0  0  0
  2  1  1  1
  2  3  1  0
  3  4  1  0
  4  5  2  0
  4  6  1  0
  6  7  1  0
  7  8  1  1
  8  9  2  0
  8 10  1  0
 10 11  1  0
 11 12  2  0
 12 13  1  0
 13 14  2  0
 14 15  1  0
 15 16  1  0
 15 17  2  0
 17 18  1  0
 17 19  1  0
 19 20  2  0
 20 21  1  0
 21 22  2  0
 22 23  1  0
  7  2  1  0
 22 11  1  0
 21 14  1  0
M  END
>  <cnnaffinity>  (40) 
-6.02837

>  <cnnaffinityIC50>  (40) 
936.7635850531849 nanomolar

>  <smiles>  (40) 
CC1CC(=O)NC1C(=O)NC1=CN=C2C(F)=C(F)C=CC2=C1Cl

>  <origin>  (40) 
x1097_x0310.sdf

>  <ref_pdb>  (40) 
x0310

>  <butcher #BAD>  (40) 
6

>  <butcher #GOOD>  (40) 
17

>  <butcher #protein clash>  (40) 
3

>  <butcher #solvent space>  (40) 
3

>  <butcher #pocket>  (40) 
17

>  <butcher #P1>  (40) 
14

>  <butcher #P2>  (40) 
1

>  <butcher #P1'>  (40) 
2

>  <butcher #P2'>  (40) 
0

>  <butcher #P3>  (40) 
0

>  <butcher #P4>  (40) 
0

>  <butcher #P5>  (40) 
0

>  <butcher #P6>  (40) 
0

>  <ref_mols>  (40) 
A71x0310a

$$$$
PV-006665240382
     RDKit          3D

 28 32  0  0  0  0  0  0  0  0999 V2000
    4.6740   10.8858   27.9242 C   0  0  0  0  0  0  0  0  0  0  0  0
    5.8060   11.3554   27.0425 C   0  0  0  0  0  0  0  0  0  0  0  0
    6.1133   12.7335   26.9833 C   0  0  0  0  0  0  0  0  0  0  0  0
    7.1294   13.2552   26.2192 C   0  0  0  0  0  0  0  0  0  0  0  0
    7.3030   14.7531   26.2427 C   0  0  0  0  0  0  0  0  0  0  0  0
    7.9477   12.3434   25.4722 C   0  0  0  0  0  0  0  0  0  0  0  0
    9.1036   12.7009   24.7231 C   0  0  0  0  0  0  0  0  0  0  0  0
    9.5547   14.1186   24.5472 C   0  0  0  0  0  0  0  0  0  0  0  0
    9.0453   14.8568   23.7226 O   0  0  0  0  0  0  0  0  0  0  0  0
   10.5248   14.5233   25.4222 N   0  0  0  0  0  0  0  0  0  0  0  0
   11.3121   15.7041   25.1155 C   0  0  0  0  0  0  0  0  0  0  0  0
   12.2254   15.4572   23.9084 C   0  0  0  0  0  0  0  0  0  0  0  0
   13.1150   14.3575   24.2146 N   0  0  0  0  0  0  0  0  0  0  0  0
   14.0988   14.3526   25.1421 C   0  0  0  0  0  0  0  0  0  0  0  0
   14.4938   13.0394   25.2039 C   0  0  0  0  0  0  0  0  0  0  0  0
   15.5688   12.4325   26.0018 C   0  0  0  0  0  0  0  0  0  0  0  0
   16.9625   12.9773   25.8704 C   0  0  0  0  0  0  0  0  0  0  0  0
   16.6116   11.6419   25.2784 C   0  0  0  0  0  0  0  0  0  0  0  0
   13.7008   12.3181   24.3615 N   0  0  0  0  0  0  0  0  0  0  0  0
   12.8637   13.1228   23.7837 N   0  0  0  0  0  0  0  0  0  0  0  0
    9.8148   11.7216   24.0832 C   0  0  0  0  0  0  0  0  0  0  0  0
    9.3648   10.3819   24.0952 C   0  0  0  0  0  0  0  0  0  0  0  0
   10.1229    9.4061   23.2436 C   0  0  0  0  0  0  0  0  0  0  0  0
    9.3471    8.6590   22.2085 C   0  0  0  0  0  0  0  0  0  0  0  0
   10.2538    9.7770   21.7873 C   0  0  0  0  0  0  0  0  0  0  0  0
    8.3094   10.0069   24.7750 N   0  0  0  0  0  0  0  0  0  0  0  0
    7.6282   10.9489   25.4943 C   0  0  0  0  0  0  0  0  0  0  0  0
    6.5492   10.4918   26.2871 C   0  0  0  0  0  0  0  0  0  0  0  0
  1  2  1  0
  2  3  2  0
  3  4  1  0
  4  5  1  0
  4  6  2  0
  6  7  1  0
  7  8  1  0
  8  9  2  0
  8 10  1  0
 10 11  1  0
 11 12  1  0
 12 13  1  0
 13 14  1  0
 14 15  2  0
 15 16  1  0
 16 17  1  0
 17 18  1  0
 15 19  1  0
 19 20  2  0
  7 21  2  0
 21 22  1  0
 22 23  1  0
 23 24  1  0
 24 25  1  0
 22 26  2  0
 26 27  1  0
 27 28  2  0
 28  2  1  0
 27  6  1  0
 20 13  1  0
 25 23  1  0
 18 16  1  0
M  END
>  <cnnaffinity>  (41) 
-6.48334

>  <cnnaffinityIC50>  (41) 
328.59428061273564 nanomolar

>  <smiles>  (41) 
CC1=CC(C)=C2C(C(=O)NCCN3C=C(C4CC4)N=N3)=CC(C3CC3)=NC2=C1

>  <origin>  (41) 
x1097-x0739-quinoline-P3.sdf

>  <ref_pdb>  (41) 
x0310

>  <butcher #BAD>  (41) 
7

>  <butcher #GOOD>  (41) 
21

>  <butcher #protein clash>  (41) 
3

>  <butcher #solvent space>  (41) 
4

>  <butcher #pocket>  (41) 
21

>  <butcher #P1>  (41) 
11

>  <butcher #P2>  (41) 
0

>  <butcher #P1'>  (41) 
6

>  <butcher #P2'>  (41) 
4

>  <butcher #P3>  (41) 
0

>  <butcher #P4>  (41) 
0

>  <butcher #P5>  (41) 
0

>  <butcher #P6>  (41) 
0

>  <ref_mols>  (41) 
A71x0739a

$$$$
Z1355820080
     RDKit          3D

 31 35  0  0  0  0  0  0  0  0999 V2000
    4.7024   10.8802   27.9325 C   0  0  0  0  0  0  0  0  0  0  0  0
    5.8230   11.3604   27.0404 C   0  0  0  0  0  0  0  0  0  0  0  0
    6.1283   12.7401   26.9831 C   0  0  0  0  0  0  0  0  0  0  0  0
    7.1440   13.2639   26.2202 C   0  0  0  0  0  0  0  0  0  0  0  0
    7.3238   14.7621   26.2478 C   0  0  0  0  0  0  0  0  0  0  0  0
    7.9638   12.3546   25.4712 C   0  0  0  0  0  0  0  0  0  0  0  0
    9.1344   12.7058   24.7418 C   0  0  0  0  0  0  0  0  0  0  0  0
    9.6301   14.1041   24.5749 C   0  0  0  0  0  0  0  0  0  0  0  0
    9.0941   14.8855   23.8123 O   0  0  0  0  0  0  0  0  0  0  0  0
   10.7084   14.4223   25.3515 N   0  0  0  0  0  0  0  0  0  0  0  0
   11.5290   15.5717   25.0179 C   0  0  0  0  0  0  0  0  0  0  0  0
   12.3651   15.3293   23.7540 C   0  0  0  0  0  0  0  0  0  0  0  0
   13.3039   14.2016   24.0205 C   0  0  0  0  0  0  0  0  0  0  0  0
   13.0989   12.9710   23.6360 N   0  0  0  0  0  0  0  0  0  0  0  0
   14.1566   12.2759   24.2130 O   0  0  0  0  0  0  0  0  0  0  0  0
   14.8753   13.1676   24.8984 C   0  0  0  0  0  0  0  0  0  0  0  0
   16.0718   12.7185   25.6299 C   0  0  0  0  0  0  0  0  0  0  0  0
   16.4806   11.3872   25.5658 C   0  0  0  0  0  0  0  0  0  0  0  0
   17.6302   11.0304   26.2603 C   0  0  0  0  0  0  0  0  0  0  0  0
   18.3091   12.0044   26.9844 C   0  0  0  0  0  0  0  0  0  0  0  0
   17.8080   13.3041   26.9840 C   0  0  0  0  0  0  0  0  0  0  0  0
   16.7083   13.6635   26.3234 N   0  0  0  0  0  0  0  0  0  0  0  0
   14.3904   14.3717   24.8318 N   0  0  0  0  0  0  0  0  0  0  0  0
    9.8402   11.7311   24.0929 C   0  0  0  0  0  0  0  0  0  0  0  0
    9.3756   10.3982   24.0819 C   0  0  0  0  0  0  0  0  0  0  0  0
   10.1303    9.4259   23.2233 C   0  0  0  0  0  0  0  0  0  0  0  0
   10.2863    9.8160   21.7754 C   0  0  0  0  0  0  0  0  0  0  0  0
    9.3392    8.7181   22.1689 C   0  0  0  0  0  0  0  0  0  0  0  0
    8.3117   10.0224   24.7493 N   0  0  0  0  0  0  0  0  0  0  0  0
    7.6361   10.9619   25.4773 C   0  0  0  0  0  0  0  0  0  0  0  0
    6.5608   10.5034   26.2726 C   0  0  0  0  0  0  0  0  0  0  0  0
  1  2  1  0
  2  3  2  0
  3  4  1  0
  4  5  1  0
  4  6  2  0
  6  7  1  0
  7  8  1  0
  8  9  2  0
  8 10  1  0
 10 11  1  0
 11 12  1  0
 12 13  1  0
 13 14  2  0
 14 15  1  0
 15 16  1  0
 16 17  1  0
 17 18  2  0
 18 19  1  0
 19 20  2  0
 20 21  1  0
 21 22  2  0
 16 23  2  0
  7 24  2  0
 24 25  1  0
 25 26  1  0
 26 27  1  0
 27 28  1  0
 25 29  2  0
 29 30  1  0
 30 31  2  0
 31  2  1  0
 30  6  1  0
 23 13  1  0
 28 26  1  0
 22 17  1  0
M  END
>  <cnnaffinity>  (42) 
-6.47735

>  <cnnaffinityIC50>  (42) 
333.1578110707929 nanomolar

>  <smiles>  (42) 
CC1=CC(C)=C2C(C(=O)NCCC3=NOC(C4=CC=CC=N4)=N3)=CC(C3CC3)=NC2=C1

>  <origin>  (42) 
x1097-x0739-quinoline-P3.sdf

>  <ref_pdb>  (42) 
x0310

>  <butcher #BAD>  (42) 
8

>  <butcher #GOOD>  (42) 
23

>  <butcher #protein clash>  (42) 
4

>  <butcher #solvent space>  (42) 
4

>  <butcher #pocket>  (42) 
23

>  <butcher #P1>  (42) 
10

>  <butcher #P2>  (42) 
0

>  <butcher #P1'>  (42) 
8

>  <butcher #P2'>  (42) 
5

>  <butcher #P3>  (42) 
0

>  <butcher #P4>  (42) 
0

>  <butcher #P5>  (42) 
0

>  <butcher #P6>  (42) 
0

>  <ref_mols>  (42) 
A71x0739a

$$$$
PV-004577236880
     RDKit          3D

 28 31  0  0  0  0  0  0  0  0999 V2000
   16.0740   13.8917   27.7938 C   0  0  0  0  0  0  0  0  0  0  0  0
   16.5509   12.8273   26.8433 C   0  0  0  0  0  0  0  0  0  0  0  0
   15.9382   12.3898   25.7369 C   0  0  0  0  0  0  0  0  0  0  0  0
   14.7678   12.9886   25.0984 C   0  0  0  0  0  0  0  0  0  0  0  0
   14.2374   14.2584   25.1710 C   0  0  0  0  0  0  0  0  0  0  0  0
   13.2356   14.2550   24.2649 N   0  0  0  0  0  0  0  0  0  0  0  0
   12.3295   15.3449   23.9538 C   0  0  0  0  0  0  0  0  0  0  0  0
   11.4109   15.6188   25.1498 C   0  0  0  0  0  0  0  0  0  0  0  0
   10.5917   14.4592   25.4501 N   0  0  0  0  0  0  0  0  0  0  0  0
    9.6124   14.0919   24.5698 C   0  0  0  0  0  0  0  0  0  0  0  0
    9.1481   14.8325   23.7221 O   0  0  0  0  0  0  0  0  0  0  0  0
    9.1255   12.6890   24.7282 C   0  0  0  0  0  0  0  0  0  0  0  0
    9.8275   11.7183   24.0665 C   0  0  0  0  0  0  0  0  0  0  0  0
    9.3750   10.3781   24.0687 C   0  0  0  0  0  0  0  0  0  0  0  0
   10.1225    9.4027   23.2049 C   0  0  0  0  0  0  0  0  0  0  0  0
    9.3642    8.6626   22.1460 C   0  0  0  0  0  0  0  0  0  0  0  0
   10.2542    9.8022   21.7571 C   0  0  0  0  0  0  0  0  0  0  0  0
    8.3245    9.9983   24.7537 N   0  0  0  0  0  0  0  0  0  0  0  0
    7.6541   10.9357   25.4913 C   0  0  0  0  0  0  0  0  0  0  0  0
    6.5689   10.4893   26.2805 C   0  0  0  0  0  0  0  0  0  0  0  0
    5.8314   11.3565   27.0381 C   0  0  0  0  0  0  0  0  0  0  0  0
    4.6948   10.8855   27.9117 C   0  0  0  0  0  0  0  0  0  0  0  0
    6.1480   12.7315   26.9947 C   0  0  0  0  0  0  0  0  0  0  0  0
    7.1642   13.2476   26.2286 C   0  0  0  0  0  0  0  0  0  0  0  0
    7.3293   14.7473   26.2339 C   0  0  0  0  0  0  0  0  0  0  0  0
    7.9755   12.3306   25.4813 C   0  0  0  0  0  0  0  0  0  0  0  0
   13.1038   13.0528   23.7079 N   0  0  0  0  0  0  0  0  0  0  0  0
   14.0292   12.2847   24.1903 N   0  0  0  0  0  0  0  0  0  0  0  0
  1  2  1  0
  2  3  2  3
  3  4  1  0
  4  5  2  0
  5  6  1  0
  6  7  1  0
  7  8  1  0
  8  9  1  0
  9 10  1  0
 10 11  2  0
 10 12  1  0
 12 13  2  0
 13 14  1  0
 14 15  1  0
 15 16  1  0
 16 17  1  0
 14 18  2  0
 18 19  1  0
 19 20  2  0
 20 21  1  0
 21 22  1  0
 21 23  2  0
 23 24  1  0
 24 25  1  0
 24 26  2  0
  6 27  1  0
 27 28  2  0
 28  4  1  0
 26 12  1  0
 17 15  1  0
 26 19  1  0
M  END
>  <cnnaffinity>  (43) 
-6.4421

>  <cnnaffinityIC50>  (43) 
361.32665452345185 nanomolar

>  <smiles>  (43) 
CC=CC1=CN(CCNC(=O)C2=CC(C3CC3)=NC3=CC(C)=CC(C)=C23)N=N1

>  <origin>  (43) 
x1097-x0739-quinoline-P3.sdf

>  <ref_pdb>  (43) 
x0310

>  <butcher #BAD>  (43) 
7

>  <butcher #GOOD>  (43) 
21

>  <butcher #protein clash>  (43) 
4

>  <butcher #solvent space>  (43) 
3

>  <butcher #pocket>  (43) 
21

>  <butcher #P1>  (43) 
12

>  <butcher #P2>  (43) 
0

>  <butcher #P1'>  (43) 
7

>  <butcher #P2'>  (43) 
2

>  <butcher #P3>  (43) 
0

>  <butcher #P4>  (43) 
0

>  <butcher #P5>  (43) 
0

>  <butcher #P6>  (43) 
0

>  <ref_mols>  (43) 
A71x0739a

$$$$
Z1457887361
     RDKit          3D

 29 33  0  0  0  0  0  0  0  0999 V2000
    4.7153   10.8988   27.8976 C   0  0  0  0  0  0  0  0  0  0  0  0
    5.8611   11.4082   27.0569 C   0  0  0  0  0  0  0  0  0  0  0  0
    6.1271   12.7945   26.9733 C   0  0  0  0  0  0  0  0  0  0  0  0
    7.1791   13.3166   26.2501 C   0  0  0  0  0  0  0  0  0  0  0  0
    7.2864   14.8151   26.1171 C   0  0  0  0  0  0  0  0  0  0  0  0
    8.0857   12.4095   25.6100 C   0  0  0  0  0  0  0  0  0  0  0  0
    9.2687   12.7683   24.8866 C   0  0  0  0  0  0  0  0  0  0  0  0
    9.9490   14.1131   24.9015 C   0  0  0  0  0  0  0  0  0  0  0  0
   10.2658   14.7120   25.9125 O   0  0  0  0  0  0  0  0  0  0  0  0
   10.3051   14.6086   23.6509 N   0  0  0  0  0  0  0  0  0  0  0  0
    9.4911   14.4953   22.5035 C   0  0  0  0  0  0  0  0  0  0  0  0
    8.1894   13.9749   22.5272 C   0  0  0  0  0  0  0  0  0  0  0  0
    7.4877   13.8066   21.3499 C   0  0  0  0  0  0  0  0  0  0  0  0
    8.0752   14.1671   20.1435 C   0  0  0  0  0  0  0  0  0  0  0  0
    9.3155   14.7679   20.1066 C   0  0  0  0  0  0  0  0  0  0  0  0
    9.9914   14.9932   21.2913 C   0  0  0  0  0  0  0  0  0  0  0  0
   11.1654   15.7542   21.2929 N   0  0  0  0  0  0  0  0  0  0  0  0
   11.8027   16.1486   22.4407 C   0  0  0  0  0  0  0  0  0  0  0  0
   12.4844   17.1500   22.4931 O   0  0  0  0  0  0  0  0  0  0  0  0
   11.6589   15.1741   23.5837 C   0  0  2  0  0  0  0  0  0  0  0  0
   12.7183   14.0700   23.4645 C   0  0  0  0  0  0  0  0  0  0  0  0
    9.8830   11.8162   24.1197 C   0  0  0  0  0  0  0  0  0  0  0  0
    9.4486   10.4761   24.1348 C   0  0  0  0  0  0  0  0  0  0  0  0
   10.1661    9.5027   23.2514 C   0  0  0  0  0  0  0  0  0  0  0  0
   10.2796    9.8765   21.7987 C   0  0  0  0  0  0  0  0  0  0  0  0
    9.3427    8.7895   22.2273 C   0  0  0  0  0  0  0  0  0  0  0  0
    8.4269   10.0847   24.8542 N   0  0  0  0  0  0  0  0  0  0  0  0
    7.7570   11.0185   25.5929 C   0  0  0  0  0  0  0  0  0  0  0  0
    6.6551   10.5533   26.3430 C   0  0  0  0  0  0  0  0  0  0  0  0
  1  2  1  0
  2  3  2  0
  3  4  1  0
  4  5  1  0
  4  6  2  0
  6  7  1  0
  7  8  1  0
  8  9  2  0
  8 10  1  0
 10 11  1  0
 11 12  2  0
 12 13  1  0
 13 14  2  0
 14 15  1  0
 15 16  2  0
 16 17  1  0
 17 18  1  0
 18 19  2  0
 18 20  1  0
 20 21  1  6
  7 22  2  0
 22 23  1  0
 23 24  1  0
 24 25  1  0
 25 26  1  0
 23 27  2  0
 27 28  1  0
 28 29  2  0
 29  2  1  0
 28  6  1  0
 20 10  1  0
 26 24  1  0
 16 11  1  0
M  END
>  <cnnaffinity>  (44) 
-6.39416

>  <cnnaffinityIC50>  (44) 
403.4967118989989 nanomolar

>  <smiles>  (44) 
CC1=CC(C)=C2C(C(=O)N3C4=CC=CC=C4NC(=O)C3C)=CC(C3CC3)=NC2=C1

>  <origin>  (44) 
x1097-x0739-quinoline-P3.sdf

>  <ref_pdb>  (44) 
x0310

>  <butcher #BAD>  (44) 
8

>  <butcher #GOOD>  (44) 
21

>  <butcher #protein clash>  (44) 
4

>  <butcher #solvent space>  (44) 
4

>  <butcher #pocket>  (44) 
21

>  <butcher #P1>  (44) 
14

>  <butcher #P2>  (44) 
4

>  <butcher #P1'>  (44) 
3

>  <butcher #P2'>  (44) 
0

>  <butcher #P3>  (44) 
0

>  <butcher #P4>  (44) 
0

>  <butcher #P5>  (44) 
0

>  <butcher #P6>  (44) 
0

>  <ref_mols>  (44) 
A71x0739a

$$$$
Z1667922208
     RDKit          3D

 28 32  0  0  0  0  0  0  0  0999 V2000
    4.9518   11.0007   27.5576 C   0  0  0  0  0  0  0  0  0  0  0  0
    6.0931   11.6518   26.8376 C   0  0  0  0  0  0  0  0  0  0  0  0
    6.4540   12.9904   27.0410 C   0  0  0  0  0  0  0  0  0  0  0  0
    7.5525   13.5621   26.3725 C   0  0  0  0  0  0  0  0  0  0  0  0
    7.8492   15.0254   26.5803 C   0  0  0  0  0  0  0  0  0  0  0  0
    8.3109   12.7605   25.4859 C   0  0  0  0  0  0  0  0  0  0  0  0
    9.4657   13.2105   24.7989 C   0  0  0  0  0  0  0  0  0  0  0  0
   10.1845   14.5064   25.0257 C   0  0  0  0  0  0  0  0  0  0  0  0
   10.4371   14.9216   26.1540 O   0  0  0  0  0  0  0  0  0  0  0  0
   10.8332   15.0455   23.9059 N   0  0  0  0  0  0  0  0  0  0  0  0
   12.1821   15.6056   23.9556 C   0  0  0  0  0  0  0  0  0  0  0  0
   13.0100   14.9222   22.8454 C   0  0  0  0  0  0  0  0  0  0  0  0
   12.4382   15.1349   21.5317 O   0  0  0  0  0  0  0  0  0  0  0  0
   11.0819   14.9178   21.4405 C   0  0  0  0  0  0  0  0  0  0  0  0
   10.5402   14.7656   20.2155 N   0  0  0  0  0  0  0  0  0  0  0  0
    9.2252   14.4949   20.1248 C   0  0  0  0  0  0  0  0  0  0  0  0
    8.3884   14.3717   21.2434 C   0  0  0  0  0  0  0  0  0  0  0  0
    6.5278   13.9550   21.1174 Br  0  0  0  0  0  0  0  0  0  0  0  0
    8.9314   14.5553   22.5009 C   0  0  0  0  0  0  0  0  0  0  0  0
   10.2906   14.8340   22.6196 C   0  0  0  0  0  0  0  0  0  0  0  0
   10.0136   12.3220   23.8508 C   0  0  0  0  0  0  0  0  0  0  0  0
    9.4908   11.0499   23.6452 C   0  0  0  0  0  0  0  0  0  0  0  0
   10.0816   10.1543   22.5938 C   0  0  0  0  0  0  0  0  0  0  0  0
   11.1901    9.1599   22.9330 C   0  0  0  0  0  0  0  0  0  0  0  0
    9.7628    8.6671   22.7226 C   0  0  0  0  0  0  0  0  0  0  0  0
    8.4620   10.6071   24.3672 N   0  0  0  0  0  0  0  0  0  0  0  0
    7.8889   11.4257   25.2513 C   0  0  0  0  0  0  0  0  0  0  0  0
    6.8143   10.8898   25.9321 C   0  0  0  0  0  0  0  0  0  0  0  0
  1  2  1  0
  2  3  2  0
  3  4  1  0
  4  5  1  0
  4  6  2  0
  6  7  1  0
  7  8  1  0
  8  9  2  0
  8 10  1  0
 10 11  1  0
 11 12  1  0
 12 13  1  0
 13 14  1  0
 14 15  2  0
 15 16  1  0
 16 17  2  0
 17 18  1  0
 17 19  1  0
 19 20  2  0
  7 21  2  0
 21 22  1  0
 22 23  1  0
 23 24  1  0
 24 25  1  0
 22 26  2  0
 26 27  1  0
 27 28  2  0
 28  2  1  0
 27  6  1  0
 20 10  1  0
 25 23  1  0
 20 14  1  0
M  END
>  <cnnaffinity>  (45) 
-6.38636

>  <cnnaffinityIC50>  (45) 
410.8090477225613 nanomolar

>  <smiles>  (45) 
CC1=CC(C)=C2C(C(=O)N3CCOC4=NC=C(Br)C=C43)=CC(C3CC3)=NC2=C1

>  <origin>  (45) 
x1097-x0739-quinoline-P3.sdf

>  <ref_pdb>  (45) 
x0310

>  <butcher #BAD>  (45) 
6

>  <butcher #GOOD>  (45) 
22

>  <butcher #protein clash>  (45) 
3

>  <butcher #solvent space>  (45) 
3

>  <butcher #pocket>  (45) 
22

>  <butcher #P1>  (45) 
14

>  <butcher #P2>  (45) 
4

>  <butcher #P1'>  (45) 
4

>  <butcher #P2'>  (45) 
0

>  <butcher #P3>  (45) 
0

>  <butcher #P4>  (45) 
0

>  <butcher #P5>  (45) 
0

>  <butcher #P6>  (45) 
0

>  <ref_mols>  (45) 
A71x0739a

$$$$
Z1354868948
     RDKit          3D

 28 31  0  0  0  0  0  0  0  0999 V2000
   15.0616   13.0657   27.2637 C   0  0  0  0  0  0  0  0  0  0  0  0
   15.8544   13.4994   26.0420 C   0  0  0  0  0  0  0  0  0  0  0  0
   15.0297   14.4036   25.1386 C   0  0  0  0  0  0  0  0  0  0  0  0
   13.8806   13.7602   24.3679 C   0  0  0  0  0  0  0  0  0  0  0  0
   13.2071   14.7672   23.5513 N   0  0  0  0  0  0  0  0  0  0  0  0
   13.7054   15.1087   22.3520 N   0  0  0  0  0  0  0  0  0  0  0  0
   13.0428   16.1350   21.9507 N   0  0  0  0  0  0  0  0  0  0  0  0
   12.1262   16.5046   22.8697 N   0  0  0  0  0  0  0  0  0  0  0  0
   12.2368   15.6497   23.8608 C   0  0  0  0  0  0  0  0  0  0  0  0
   11.4328   15.6205   25.1276 C   0  0  0  0  0  0  0  0  0  0  0  0
   10.7201   14.3721   25.3241 N   0  0  0  0  0  0  0  0  0  0  0  0
    9.6460   14.0641   24.5373 C   0  0  0  0  0  0  0  0  0  0  0  0
    9.1289   14.8487   23.7657 O   0  0  0  0  0  0  0  0  0  0  0  0
    9.1312   12.6673   24.7090 C   0  0  0  0  0  0  0  0  0  0  0  0
    9.7951   11.6826   24.0325 C   0  0  0  0  0  0  0  0  0  0  0  0
    9.3426   10.3444   24.0736 C   0  0  0  0  0  0  0  0  0  0  0  0
   10.0904    9.3633   23.2216 C   0  0  0  0  0  0  0  0  0  0  0  0
    9.3260    8.6285   22.1691 C   0  0  0  0  0  0  0  0  0  0  0  0
   10.2324    9.7534   21.7727 C   0  0  0  0  0  0  0  0  0  0  0  0
    8.2995    9.9782   24.7765 N   0  0  0  0  0  0  0  0  0  0  0  0
    7.6395   10.9332   25.5007 C   0  0  0  0  0  0  0  0  0  0  0  0
    6.5525   10.4922   26.2926 C   0  0  0  0  0  0  0  0  0  0  0  0
    5.8194   11.3639   27.0479 C   0  0  0  0  0  0  0  0  0  0  0  0
    4.6713   10.9090   27.9173 C   0  0  0  0  0  0  0  0  0  0  0  0
    6.1546   12.7360   27.0007 C   0  0  0  0  0  0  0  0  0  0  0  0
    7.1871   13.2415   26.2463 C   0  0  0  0  0  0  0  0  0  0  0  0
    7.4006   14.7342   26.2927 C   0  0  0  0  0  0  0  0  0  0  0  0
    7.9812   12.3237   25.4806 C   0  0  0  0  0  0  0  0  0  0  0  0
  1  2  1  0
  2  3  1  0
  3  4  1  0
  4  5  1  0
  5  6  1  0
  6  7  2  0
  7  8  1  0
  8  9  2  0
  9 10  1  0
 10 11  1  0
 11 12  1  0
 12 13  2  0
 12 14  1  0
 14 15  2  0
 15 16  1  0
 16 17  1  0
 17 18  1  0
 18 19  1  0
 16 20  2  0
 20 21  1  0
 21 22  2  0
 22 23  1  0
 23 24  1  0
 23 25  2  0
 25 26  1  0
 26 27  1  0
 26 28  2  0
  9  5  1  0
 28 14  1  0
 19 17  1  0
 28 21  1  0
M  END
>  <cnnaffinity>  (46) 
-6.33407

>  <cnnaffinityIC50>  (46) 
463.3722269381639 nanomolar

>  <smiles>  (46) 
CCCCN1N=NN=C1CNC(=O)C1=CC(C2CC2)=NC2=CC(C)=CC(C)=C12

>  <origin>  (46) 
x1097-x0739-quinoline-P3.sdf

>  <ref_pdb>  (46) 
x0310

>  <butcher #BAD>  (46) 
7

>  <butcher #GOOD>  (46) 
21

>  <butcher #protein clash>  (46) 
4

>  <butcher #solvent space>  (46) 
3

>  <butcher #pocket>  (46) 
21

>  <butcher #P1>  (46) 
12

>  <butcher #P2>  (46) 
0

>  <butcher #P1'>  (46) 
9

>  <butcher #P2'>  (46) 
0

>  <butcher #P3>  (46) 
0

>  <butcher #P4>  (46) 
0

>  <butcher #P5>  (46) 
0

>  <butcher #P6>  (46) 
0

>  <ref_mols>  (46) 
A71x0739a

$$$$
PV-005666289285
     RDKit          3D

 28 31  0  0  0  0  0  0  0  0999 V2000
    4.6789   10.8781   27.9170 C   0  0  0  0  0  0  0  0  0  0  0  0
    5.8119   11.3539   27.0407 C   0  0  0  0  0  0  0  0  0  0  0  0
    6.1413   12.7283   26.9976 C   0  0  0  0  0  0  0  0  0  0  0  0
    7.1602   13.2360   26.2269 C   0  0  0  0  0  0  0  0  0  0  0  0
    7.3620   14.7307   26.2518 C   0  0  0  0  0  0  0  0  0  0  0  0
    7.9548   12.3165   25.4627 C   0  0  0  0  0  0  0  0  0  0  0  0
    9.1109   12.6585   24.7035 C   0  0  0  0  0  0  0  0  0  0  0  0
    9.6395   14.0471   24.5577 C   0  0  0  0  0  0  0  0  0  0  0  0
    9.1159   14.8654   23.8230 O   0  0  0  0  0  0  0  0  0  0  0  0
   10.7419   14.2953   25.3141 N   0  0  0  0  0  0  0  0  0  0  0  0
   11.5671   15.4563   25.0981 C   0  0  0  0  0  0  0  0  0  0  0  0
   12.7692   15.1283   24.2040 C   0  0  2  0  0  0  0  0  0  0  0  0
   12.3904   14.6185   22.8242 C   0  0  0  0  0  0  0  0  0  0  0  0
   13.6523   14.2083   24.9170 N   0  0  0  0  0  0  0  0  0  0  0  0
   14.4471   14.5248   25.9686 C   0  0  0  0  0  0  0  0  0  0  0  0
   14.9407   13.3235   26.4031 C   0  0  0  0  0  0  0  0  0  0  0  0
   15.8736   13.0448   27.5468 C   0  0  0  0  0  0  0  0  0  0  0  0
   15.2176   12.8908   28.7954 O   0  0  0  0  0  0  0  0  0  0  0  0
   14.4050   12.3478   25.6208 N   0  0  0  0  0  0  0  0  0  0  0  0
   13.6149   12.8890   24.7416 N   0  0  0  0  0  0  0  0  0  0  0  0
    9.7845   11.6744   24.0331 C   0  0  0  0  0  0  0  0  0  0  0  0
    9.3361   10.3372   24.0640 C   0  0  0  0  0  0  0  0  0  0  0  0
   10.0953    9.3574   23.2157 C   0  0  0  0  0  0  0  0  0  0  0  0
   10.2596    9.7505   21.7707 C   0  0  0  0  0  0  0  0  0  0  0  0
    9.3270    8.6397   22.1508 C   0  0  0  0  0  0  0  0  0  0  0  0
    8.2846    9.9712   24.7567 N   0  0  0  0  0  0  0  0  0  0  0  0
    7.6174   10.9255   25.4760 C   0  0  0  0  0  0  0  0  0  0  0  0
    6.5331   10.4861   26.2683 C   0  0  0  0  0  0  0  0  0  0  0  0
  1  2  1  0
  2  3  2  0
  3  4  1  0
  4  5  1  0
  4  6  2  0
  6  7  1  0
  7  8  1  0
  8  9  2  0
  8 10  1  0
 10 11  1  0
 11 12  1  0
 12 13  1  6
 12 14  1  0
 14 15  1  0
 15 16  2  0
 16 17  1  0
 17 18  1  0
 16 19  1  0
 19 20  2  0
  7 21  2  0
 21 22  1  0
 22 23  1  0
 23 24  1  0
 24 25  1  0
 22 26  2  0
 26 27  1  0
 27 28  2  0
 28  2  1  0
 27  6  1  0
 20 14  1  0
 25 23  1  0
M  END
>  <cnnaffinity>  (47) 
-6.32944

>  <cnnaffinityIC50>  (47) 
468.33865027993164 nanomolar

>  <smiles>  (47) 
CC1=CC(C)=C2C(C(=O)NC[C@H](C)N3C=C(CO)N=N3)=CC(C3CC3)=NC2=C1

>  <origin>  (47) 
x1097-x0739-quinoline-P3.sdf

>  <ref_pdb>  (47) 
x0310

>  <butcher #BAD>  (47) 
6

>  <butcher #GOOD>  (47) 
22

>  <butcher #protein clash>  (47) 
3

>  <butcher #solvent space>  (47) 
3

>  <butcher #pocket>  (47) 
22

>  <butcher #P1>  (47) 
12

>  <butcher #P2>  (47) 
0

>  <butcher #P1'>  (47) 
9

>  <butcher #P2'>  (47) 
1

>  <butcher #P3>  (47) 
0

>  <butcher #P4>  (47) 
0

>  <butcher #P5>  (47) 
0

>  <butcher #P6>  (47) 
0

>  <ref_mols>  (47) 
A71x0739a

$$$$
Z1355126917
     RDKit          3D

 31 35  0  0  0  0  0  0  0  0999 V2000
    4.8337   10.3143   27.5796 C   0  0  0  0  0  0  0  0  0  0  0  0
    5.8241   11.0360   26.7027 C   0  0  0  0  0  0  0  0  0  0  0  0
    6.0218   12.4212   26.8799 C   0  0  0  0  0  0  0  0  0  0  0  0
    6.9323   13.1633   26.1629 C   0  0  0  0  0  0  0  0  0  0  0  0
    6.9091   14.6470   26.4559 C   0  0  0  0  0  0  0  0  0  0  0  0
    7.7881   12.4745   25.2287 C   0  0  0  0  0  0  0  0  0  0  0  0
    8.8507   13.0278   24.4412 C   0  0  0  0  0  0  0  0  0  0  0  0
    9.1910   14.4825   24.4752 C   0  0  0  0  0  0  0  0  0  0  0  0
    8.3558   15.3497   24.2770 O   0  0  0  0  0  0  0  0  0  0  0  0
   10.4949   14.7275   24.7939 N   0  0  0  0  0  0  0  0  0  0  0  0
   10.9316   15.9294   25.4810 C   0  0  0  0  0  0  0  0  0  0  0  0
   11.3385   15.6280   26.9112 C   0  0  0  0  0  0  0  0  0  0  0  0
   10.3364   15.5962   27.8836 C   0  0  0  0  0  0  0  0  0  0  0  0
   10.6051   15.1963   29.1884 C   0  0  0  0  0  0  0  0  0  0  0  0
   11.8966   14.8123   29.5328 C   0  0  0  0  0  0  0  0  0  0  0  0
   12.9058   14.8727   28.5802 C   0  0  0  0  0  0  0  0  0  0  0  0
   12.6549   15.3067   27.2818 C   0  0  0  0  0  0  0  0  0  0  0  0
   13.8505   15.4384   26.3604 C   0  0  0  0  0  0  0  0  0  0  0  0
   14.2442   14.1747   25.7563 N   0  0  0  0  0  0  0  0  0  0  0  0
   15.2787   13.3538   26.0102 C   0  0  0  0  0  0  0  0  0  0  0  0
   15.1741   12.2442   25.3037 N   0  0  0  0  0  0  0  0  0  0  0  0
   14.0161   12.4433   24.6196 C   0  0  0  0  0  0  0  0  0  0  0  0
   13.4064   13.5906   24.8724 N   0  0  0  0  0  0  0  0  0  0  0  0
    9.5955   12.2123   23.6179 C   0  0  0  0  0  0  0  0  0  0  0  0
    9.3365   10.8240   23.5562 C   0  0  0  0  0  0  0  0  0  0  0  0
   10.1646    9.9461   22.6703 C   0  0  0  0  0  0  0  0  0  0  0  0
   11.3964    9.2312   23.1944 C   0  0  0  0  0  0  0  0  0  0  0  0
   10.1198    8.4937   22.9856 C   0  0  0  0  0  0  0  0  0  0  0  0
    8.3764   10.2803   24.2624 N   0  0  0  0  0  0  0  0  0  0  0  0
    7.5990   11.0673   25.0566 C   0  0  0  0  0  0  0  0  0  0  0  0
    6.5665   10.3991   25.7524 C   0  0  0  0  0  0  0  0  0  0  0  0
  1  2  1  0
  2  3  2  0
  3  4  1  0
  4  5  1  0
  4  6  2  0
  6  7  1  0
  7  8  1  0
  8  9  2  0
  8 10  1  0
 10 11  1  0
 11 12  1  0
 12 13  2  0
 13 14  1  0
 14 15  2  0
 15 16  1  0
 16 17  2  0
 17 18  1  0
 18 19  1  0
 19 20  1  0
 20 21  2  0
 21 22  1  0
 22 23  2  0
  7 24  2  0
 24 25  1  0
 25 26  1  0
 26 27  1  0
 27 28  1  0
 25 29  2  0
 29 30  1  0
 30 31  2  0
 31  2  1  0
 30  6  1  0
 17 12  1  0
 23 19  1  0
 28 26  1  0
M  END
>  <cnnaffinity>  (48) 
-6.32863

>  <cnnaffinityIC50>  (48) 
469.2129609338617 nanomolar

>  <smiles>  (48) 
CC1=CC(C)=C2C(C(=O)NCC3=CC=CC=C3CN3C=NC=N3)=CC(C3CC3)=NC2=C1

>  <origin>  (48) 
x1097-x0739-quinoline-P3.sdf

>  <ref_pdb>  (48) 
x0310

>  <butcher #BAD>  (48) 
8

>  <butcher #GOOD>  (48) 
23

>  <butcher #protein clash>  (48) 
5

>  <butcher #solvent space>  (48) 
3

>  <butcher #pocket>  (48) 
23

>  <butcher #P1>  (48) 
13

>  <butcher #P2>  (48) 
0

>  <butcher #P1'>  (48) 
8

>  <butcher #P2'>  (48) 
2

>  <butcher #P3>  (48) 
0

>  <butcher #P4>  (48) 
0

>  <butcher #P5>  (48) 
0

>  <butcher #P6>  (48) 
0

>  <ref_mols>  (48) 
A71x0739a

$$$$
Z1354893693
     RDKit          3D

 28 32  0  0  0  0  0  0  0  0999 V2000
    4.8054   11.0145   27.9292 C   0  0  0  0  0  0  0  0  0  0  0  0
    5.9793   11.4446   27.0875 C   0  0  0  0  0  0  0  0  0  0  0  0
    6.2872   12.8151   26.9455 C   0  0  0  0  0  0  0  0  0  0  0  0
    7.3558   13.2827   26.2123 C   0  0  0  0  0  0  0  0  0  0  0  0
    7.4925   14.7827   26.0883 C   0  0  0  0  0  0  0  0  0  0  0  0
    8.2189   12.3219   25.5860 C   0  0  0  0  0  0  0  0  0  0  0  0
    9.3994   12.6112   24.8201 C   0  0  0  0  0  0  0  0  0  0  0  0
   10.1610   13.9138   24.7876 C   0  0  0  0  0  0  0  0  0  0  0  0
   10.4964   14.5697   25.7532 O   0  0  0  0  0  0  0  0  0  0  0  0
   10.5415   14.3062   23.4952 N   0  0  0  0  0  0  0  0  0  0  0  0
   11.9263   14.7531   23.3825 C   0  0  0  0  0  0  0  0  0  0  0  0
   12.2832   15.4651   22.0973 C   0  0  0  0  0  0  0  0  0  0  0  0
   13.4260   15.7872   21.8421 O   0  0  0  0  0  0  0  0  0  0  0  0
   11.2473   15.7294   21.2416 N   0  0  0  0  0  0  0  0  0  0  0  0
    9.9127   15.3584   21.4256 C   0  0  0  0  0  0  0  0  0  0  0  0
    8.9072   15.8126   20.5838 C   0  0  0  0  0  0  0  0  0  0  0  0
    7.6293   15.5201   20.7640 N   0  0  0  0  0  0  0  0  0  0  0  0
    7.3021   14.7059   21.7628 C   0  0  0  0  0  0  0  0  0  0  0  0
    8.2225   14.1977   22.6541 C   0  0  0  0  0  0  0  0  0  0  0  0
    9.5617   14.5763   22.5262 C   0  0  0  0  0  0  0  0  0  0  0  0
    9.9295   11.6173   24.0436 C   0  0  0  0  0  0  0  0  0  0  0  0
    9.4744   10.2863   24.1459 C   0  0  0  0  0  0  0  0  0  0  0  0
   10.1083    9.2546   23.2606 C   0  0  0  0  0  0  0  0  0  0  0  0
    9.2451    8.6852   22.1779 C   0  0  0  0  0  0  0  0  0  0  0  0
   10.2948    9.6937   21.8358 C   0  0  0  0  0  0  0  0  0  0  0  0
    8.4887    9.9523   24.9390 N   0  0  0  0  0  0  0  0  0  0  0  0
    7.8563   10.9397   25.6408 C   0  0  0  0  0  0  0  0  0  0  0  0
    6.7534   10.5370   26.4258 C   0  0  0  0  0  0  0  0  0  0  0  0
  1  2  1  0
  2  3  2  0
  3  4  1  0
  4  5  1  0
  4  6  2  0
  6  7  1  0
  7  8  1  0
  8  9  2  0
  8 10  1  0
 10 11  1  0
 11 12  1  0
 12 13  2  0
 12 14  1  0
 14 15  1  0
 15 16  2  0
 16 17  1  0
 17 18  2  0
 18 19  1  0
 19 20  2  0
  7 21  2  0
 21 22  1  0
 22 23  1  0
 23 24  1  0
 24 25  1  0
 22 26  2  0
 26 27  1  0
 27 28  2  0
 28  2  1  0
 27  6  1  0
 20 10  1  0
 25 23  1  0
 20 15  1  0
M  END
>  <cnnaffinity>  (49) 
-6.32604

>  <cnnaffinityIC50>  (49) 
472.0195646529226 nanomolar

>  <smiles>  (49) 
CC1=CC(C)=C2C(C(=O)N3CC(=O)NC4=CN=CC=C43)=CC(C3CC3)=NC2=C1

>  <origin>  (49) 
x1097-x0739-quinoline-P3.sdf

>  <ref_pdb>  (49) 
x0310

>  <butcher #BAD>  (49) 
5

>  <butcher #GOOD>  (49) 
23

>  <butcher #protein clash>  (49) 
3

>  <butcher #solvent space>  (49) 
2

>  <butcher #pocket>  (49) 
23

>  <butcher #P1>  (49) 
15

>  <butcher #P2>  (49) 
4

>  <butcher #P1'>  (49) 
4

>  <butcher #P2'>  (49) 
0

>  <butcher #P3>  (49) 
0

>  <butcher #P4>  (49) 
0

>  <butcher #P5>  (49) 
0

>  <butcher #P6>  (49) 
0

>  <ref_mols>  (49) 
A71x0739a

$$$$
Z1355104027
     RDKit          3D

 28 32  0  0  0  0  0  0  0  0999 V2000
    4.6904   10.9187   27.9271 C   0  0  0  0  0  0  0  0  0  0  0  0
    5.8394   11.4014   27.0722 C   0  0  0  0  0  0  0  0  0  0  0  0
    6.1307   12.7839   26.9829 C   0  0  0  0  0  0  0  0  0  0  0  0
    7.1845   13.2942   26.2538 C   0  0  0  0  0  0  0  0  0  0  0  0
    7.3217   14.7933   26.1751 C   0  0  0  0  0  0  0  0  0  0  0  0
    8.0691   12.3781   25.5942 C   0  0  0  0  0  0  0  0  0  0  0  0
    9.2499   12.7209   24.8494 C   0  0  0  0  0  0  0  0  0  0  0  0
    9.9823   14.0497   24.8429 C   0  0  0  0  0  0  0  0  0  0  0  0
   10.3126   14.6678   25.8360 O   0  0  0  0  0  0  0  0  0  0  0  0
   10.3695   14.4909   23.5745 N   0  0  0  0  0  0  0  0  0  0  0  0
   11.7797   14.8859   23.4288 C   0  0  0  0  0  0  0  0  0  0  0  0
   11.9991   15.5908   22.1006 C   0  0  0  0  0  0  0  0  0  0  0  0
   11.4273   14.7884   21.0273 N   0  0  0  0  0  0  0  0  0  0  0  0
   11.9104   14.9707   19.6709 C   0  0  0  0  0  0  0  0  0  0  0  0
   10.0900   14.5074   21.1639 C   0  0  0  0  0  0  0  0  0  0  0  0
    9.3699   14.3502   20.0583 N   0  0  0  0  0  0  0  0  0  0  0  0
    8.0709   14.1216   20.1885 C   0  0  0  0  0  0  0  0  0  0  0  0
    7.4164   14.0035   21.4009 C   0  0  0  0  0  0  0  0  0  0  0  0
    8.1591   14.1462   22.5587 C   0  0  0  0  0  0  0  0  0  0  0  0
    9.5290   14.3746   22.4598 C   0  0  0  0  0  0  0  0  0  0  0  0
    9.8220   11.7496   24.0725 C   0  0  0  0  0  0  0  0  0  0  0  0
    9.3736   10.4130   24.1117 C   0  0  0  0  0  0  0  0  0  0  0  0
   10.0956    9.4253   23.2481 C   0  0  0  0  0  0  0  0  0  0  0  0
    9.2969    8.7117   22.2012 C   0  0  0  0  0  0  0  0  0  0  0  0
   10.2254    9.8155   21.8046 C   0  0  0  0  0  0  0  0  0  0  0  0
    8.3555   10.0404   24.8452 N   0  0  0  0  0  0  0  0  0  0  0  0
    7.7082   10.9928   25.5808 C   0  0  0  0  0  0  0  0  0  0  0  0
    6.6112   10.5370   26.3477 C   0  0  0  0  0  0  0  0  0  0  0  0
  1  2  1  0
  2  3  2  0
  3  4  1  0
  4  5  1  0
  4  6  2  0
  6  7  1  0
  7  8  1  0
  8  9  2  0
  8 10  1  0
 10 11  1  0
 11 12  1  0
 12 13  1  0
 13 14  1  0
 13 15  1  0
 15 16  2  0
 16 17  1  0
 17 18  2  0
 18 19  1  0
 19 20  2  0
  7 21  2  0
 21 22  1  0
 22 23  1  0
 23 24  1  0
 24 25  1  0
 22 26  2  0
 26 27  1  0
 27 28  2  0
 28  2  1  0
 27  6  1  0
 20 10  1  0
 25 23  1  0
 20 15  1  0
M  END
>  <cnnaffinity>  (50) 
-6.29903

>  <cnnaffinityIC50>  (50) 
502.3078901241292 nanomolar

>  <smiles>  (50) 
CC1=CC(C)=C2C(C(=O)N3CCN(C)C4=NC=CC=C43)=CC(C3CC3)=NC2=C1

>  <origin>  (50) 
x1097-x0739-quinoline-P3.sdf

>  <ref_pdb>  (50) 
x0310

>  <butcher #BAD>  (50) 
7

>  <butcher #GOOD>  (50) 
21

>  <butcher #protein clash>  (50) 
3

>  <butcher #solvent space>  (50) 
4

>  <butcher #pocket>  (50) 
21

>  <butcher #P1>  (50) 
14

>  <butcher #P2>  (50) 
5

>  <butcher #P1'>  (50) 
2

>  <butcher #P2'>  (50) 
0

>  <butcher #P3>  (50) 
0

>  <butcher #P4>  (50) 
0

>  <butcher #P5>  (50) 
0

>  <butcher #P6>  (50) 
0

>  <ref_mols>  (50) 
A71x0739a

$$$$
Z4270762792
     RDKit          3D

 26 30  0  0  0  0  0  0  0  0999 V2000
    4.8215   10.9604   27.8389 C   0  0  0  0  0  0  0  0  0  0  0  0
    5.9926   11.4521   27.0252 C   0  0  0  0  0  0  0  0  0  0  0  0
    6.2676   12.8325   26.9044 C   0  0  0  0  0  0  0  0  0  0  0  0
    7.3081   13.3331   26.1504 C   0  0  0  0  0  0  0  0  0  0  0  0
    7.4232   14.8338   26.0422 C   0  0  0  0  0  0  0  0  0  0  0  0
    8.1831   12.4105   25.4868 C   0  0  0  0  0  0  0  0  0  0  0  0
    9.3139   12.7523   24.6733 C   0  0  0  0  0  0  0  0  0  0  0  0
    9.9377   14.1292   24.5576 C   0  0  0  0  0  0  0  0  0  0  0  0
   10.3349   14.7562   25.5202 O   0  0  0  0  0  0  0  0  0  0  0  0
   10.1540   14.6090   23.2715 N   0  0  0  0  0  0  0  0  0  0  0  0
   11.3517   15.3787   22.9415 C   0  0  0  0  0  0  0  0  0  0  0  0
   11.8058   15.0429   21.5175 C   0  0  0  0  0  0  0  0  0  0  0  0
   10.7168   15.4529   20.5248 C   0  0  0  0  0  0  0  0  0  0  0  0
    9.4437   14.7933   20.9245 C   0  0  0  0  0  0  0  0  0  0  0  0
    8.4101   14.4381   20.2110 N   0  0  0  0  0  0  0  0  0  0  0  0
    7.4563   13.9453   21.0721 N   0  0  0  0  0  0  0  0  0  0  0  0
    7.9497   14.0109   22.2752 C   0  0  0  0  0  0  0  0  0  0  0  0
    9.2126   14.5189   22.2453 N   0  0  0  0  0  0  0  0  0  0  0  0
    9.9205   11.7606   23.9483 C   0  0  0  0  0  0  0  0  0  0  0  0
    9.5171   10.4090   24.0733 C   0  0  0  0  0  0  0  0  0  0  0  0
   10.2024    9.3730   23.2317 C   0  0  0  0  0  0  0  0  0  0  0  0
   10.3666    9.7357   21.7852 C   0  0  0  0  0  0  0  0  0  0  0  0
    9.3617    8.6998   22.1862 C   0  0  0  0  0  0  0  0  0  0  0  0
    8.5427   10.0440   24.8673 N   0  0  0  0  0  0  0  0  0  0  0  0
    7.8792   11.0124   25.5650 C   0  0  0  0  0  0  0  0  0  0  0  0
    6.7994   10.5727   26.3616 C   0  0  0  0  0  0  0  0  0  0  0  0
  1  2  1  0
  2  3  2  0
  3  4  1  0
  4  5  1  0
  4  6  2  0
  6  7  1  0
  7  8  1  0
  8  9  2  0
  8 10  1  0
 10 11  1  0
 11 12  1  0
 12 13  1  0
 13 14  1  0
 14 15  2  0
 15 16  1  0
 16 17  2  0
 17 18  1  0
  7 19  2  0
 19 20  1  0
 20 21  1  0
 21 22  1  0
 22 23  1  0
 20 24  2  0
 24 25  1  0
 25 26  2  0
 26  2  1  0
 25  6  1  0
 18 10  1  0
 23 21  1  0
 18 14  1  0
M  END
>  <cnnaffinity>  (51) 
-6.23543

>  <cnnaffinityIC50>  (51) 
581.527155858236 nanomolar

>  <smiles>  (51) 
CC1=CC(C)=C2C(C(=O)N3CCCC4=NN=CN43)=CC(C3CC3)=NC2=C1

>  <origin>  (51) 
x1097-x0739-quinoline-P3.sdf

>  <ref_pdb>  (51) 
x0310

>  <butcher #BAD>  (51) 
3

>  <butcher #GOOD>  (51) 
23

>  <butcher #protein clash>  (51) 
2

>  <butcher #solvent space>  (51) 
1

>  <butcher #pocket>  (51) 
23

>  <butcher #P1>  (51) 
17

>  <butcher #P2>  (51) 
5

>  <butcher #P1'>  (51) 
1

>  <butcher #P2'>  (51) 
0

>  <butcher #P3>  (51) 
0

>  <butcher #P4>  (51) 
0

>  <butcher #P5>  (51) 
0

>  <butcher #P6>  (51) 
0

>  <ref_mols>  (51) 
A71x0739a

$$$$
PV-004592631936
     RDKit          3D

 28 31  0  0  0  0  0  0  0  0999 V2000
    4.6976   10.9032   27.9257 C   0  0  0  0  0  0  0  0  0  0  0  0
    5.8047   11.3721   27.0126 C   0  0  0  0  0  0  0  0  0  0  0  0
    6.1134   12.7492   26.9355 C   0  0  0  0  0  0  0  0  0  0  0  0
    7.1219   13.2481   26.1454 C   0  0  0  0  0  0  0  0  0  0  0  0
    7.3366   14.7397   26.1733 C   0  0  0  0  0  0  0  0  0  0  0  0
    7.9006   12.3283   25.3681 C   0  0  0  0  0  0  0  0  0  0  0  0
    9.0002   12.6735   24.5321 C   0  0  0  0  0  0  0  0  0  0  0  0
    9.5076   14.0684   24.3242 C   0  0  0  0  0  0  0  0  0  0  0  0
    9.0010   14.8613   23.5507 O   0  0  0  0  0  0  0  0  0  0  0  0
   10.6142   14.3031   25.0750 N   0  0  0  0  0  0  0  0  0  0  0  0
   11.2508   15.5987   25.2458 C   0  0  0  0  0  0  0  0  0  0  0  0
   12.1793   15.4359   26.4066 C   0  0  0  0  0  0  0  0  0  0  0  0
   13.5362   15.2827   26.4884 C   0  0  0  0  0  0  0  0  0  0  0  0
   13.7615   14.9952   27.7987 N   0  0  0  0  0  0  0  0  0  0  0  0
   15.0406   14.8056   28.4740 C   0  0  0  0  0  0  0  0  0  0  0  0
   15.3698   13.3803   28.9532 C   0  0  0  0  0  0  0  0  0  0  0  0
   14.4820   12.9339   30.1136 C   0  0  0  0  0  0  0  0  0  0  0  0
   16.8306   13.3662   29.4065 C   0  0  0  0  0  0  0  0  0  0  0  0
   12.6126   14.9847   28.4768 N   0  0  0  0  0  0  0  0  0  0  0  0
   11.6470   15.2156   27.6387 N   0  0  0  0  0  0  0  0  0  0  0  0
    9.6840   11.6808   23.8879 C   0  0  0  0  0  0  0  0  0  0  0  0
    9.3026   10.3259   24.0174 C   0  0  0  0  0  0  0  0  0  0  0  0
   10.0713    9.3146   23.2157 C   0  0  0  0  0  0  0  0  0  0  0  0
   10.2531    9.6638   21.7600 C   0  0  0  0  0  0  0  0  0  0  0  0
    9.3187    8.5672   22.1627 C   0  0  0  0  0  0  0  0  0  0  0  0
    8.2876    9.9609   24.7601 N   0  0  0  0  0  0  0  0  0  0  0  0
    7.6031   10.9288   25.4431 C   0  0  0  0  0  0  0  0  0  0  0  0
    6.5367   10.4946   26.2644 C   0  0  0  0  0  0  0  0  0  0  0  0
  1  2  1  0
  2  3  2  0
  3  4  1  0
  4  5  1  0
  4  6  2  0
  6  7  1  0
  7  8  1  0
  8  9  2  0
  8 10  1  0
 10 11  1  0
 11 12  1  0
 12 13  2  0
 13 14  1  0
 14 15  1  0
 15 16  1  0
 16 17  1  0
 16 18  1  0
 14 19  1  0
 19 20  2  0
  7 21  2  0
 21 22  1  0
 22 23  1  0
 23 24  1  0
 24 25  1  0
 22 26  2  0
 26 27  1  0
 27 28  2  0
 28  2  1  0
 27  6  1  0
 20 12  1  0
 25 23  1  0
M  END
>  <cnnaffinity>  (52) 
-6.22714

>  <cnnaffinityIC50>  (52) 
592.7342188423507 nanomolar

>  <smiles>  (52) 
CC1=CC(C)=C2C(C(=O)NCC3=CN(CC(C)C)N=N3)=CC(C3CC3)=NC2=C1

>  <origin>  (52) 
x1097-x0739-quinoline-P3.sdf

>  <ref_pdb>  (52) 
x0310

>  <butcher #BAD>  (52) 
9

>  <butcher #GOOD>  (52) 
19

>  <butcher #protein clash>  (52) 
4

>  <butcher #solvent space>  (52) 
5

>  <butcher #pocket>  (52) 
19

>  <butcher #P1>  (52) 
12

>  <butcher #P2>  (52) 
0

>  <butcher #P1'>  (52) 
7

>  <butcher #P2'>  (52) 
0

>  <butcher #P3>  (52) 
0

>  <butcher #P4>  (52) 
0

>  <butcher #P5>  (52) 
0

>  <butcher #P6>  (52) 
0

>  <ref_mols>  (52) 
A71x0739a

$$$$
Z1500141987
     RDKit          3D

 32 36  0  0  0  0  0  0  0  0999 V2000
    4.7104   10.8583   27.9129 C   0  0  0  0  0  0  0  0  0  0  0  0
    5.8043   11.3494   27.0017 C   0  0  0  0  0  0  0  0  0  0  0  0
    6.1055   12.7264   26.9376 C   0  0  0  0  0  0  0  0  0  0  0  0
    7.1207   13.2363   26.1634 C   0  0  0  0  0  0  0  0  0  0  0  0
    7.2931   14.7349   26.1999 C   0  0  0  0  0  0  0  0  0  0  0  0
    7.9229   12.3169   25.4053 C   0  0  0  0  0  0  0  0  0  0  0  0
    9.0583   12.6551   24.6133 C   0  0  0  0  0  0  0  0  0  0  0  0
    9.5851   14.0462   24.4829 C   0  0  0  0  0  0  0  0  0  0  0  0
    8.9987   14.9161   23.8664 O   0  0  0  0  0  0  0  0  0  0  0  0
   10.7649   14.2337   25.1294 N   0  0  0  0  0  0  0  0  0  0  0  0
   11.2871   15.5465   25.4634 C   0  0  0  0  0  0  0  0  0  0  0  0
   12.1199   15.3957   26.6891 C   0  0  0  0  0  0  0  0  0  0  0  0
   13.3444   14.9427   26.6657 N   0  0  0  0  0  0  0  0  0  0  0  0
   13.7887   14.8818   27.9657 N   0  0  0  0  0  0  0  0  0  0  0  0
   12.8102   15.2949   28.7279 C   0  0  0  0  0  0  0  0  0  0  0  0
   12.8168   15.5346   30.1984 C   0  0  0  0  0  0  0  0  0  0  0  0
   11.4094   15.3973   30.7710 C   0  0  0  0  0  0  0  0  0  0  0  0
   10.4391   16.2700   29.9695 C   0  0  2  0  0  0  0  0  0  0  0  0
    9.0494   16.2357   30.5769 C   0  0  0  0  0  0  0  0  0  0  0  0
    8.1722   17.0013   29.8968 F   0  0  0  0  0  0  0  0  0  0  0  0
    8.5424   14.9789   30.5872 F   0  0  0  0  0  0  0  0  0  0  0  0
    9.0453   16.6650   31.8543 F   0  0  0  0  0  0  0  0  0  0  0  0
   10.3734   15.8232   28.5040 C   0  0  0  0  0  0  0  0  0  0  0  0
   11.7113   15.6089   27.9759 N   0  0  0  0  0  0  0  0  0  0  0  0
    9.7226   11.6793   23.9234 C   0  0  0  0  0  0  0  0  0  0  0  0
    9.3192   10.3276   24.0113 C   0  0  0  0  0  0  0  0  0  0  0  0
   10.0878    9.3181   23.2033 C   0  0  0  0  0  0  0  0  0  0  0  0
    9.3177    8.5994   22.1416 C   0  0  0  0  0  0  0  0  0  0  0  0
   10.2866    9.6750   21.7523 C   0  0  0  0  0  0  0  0  0  0  0  0
    8.2940    9.9609   24.7419 N   0  0  0  0  0  0  0  0  0  0  0  0
    7.6102   10.9196   25.4415 C   0  0  0  0  0  0  0  0  0  0  0  0
    6.5307   10.4804   26.2391 C   0  0  0  0  0  0  0  0  0  0  0  0
  1  2  1  0
  2  3  2  0
  3  4  1  0
  4  5  1  0
  4  6  2  0
  6  7  1  0
  7  8  1  0
  8  9  2  0
  8 10  1  0
 10 11  1  0
 11 12  1  0
 12 13  2  0
 13 14  1  0
 14 15  2  0
 15 16  1  0
 16 17  1  0
 17 18  1  0
 18 19  1  1
 19 20  1  0
 19 21  1  0
 19 22  1  0
 18 23  1  0
 23 24  1  0
  7 25  2  0
 25 26  1  0
 26 27  1  0
 27 28  1  0
 28 29  1  0
 26 30  2  0
 30 31  1  0
 31 32  2  0
 32  2  1  0
 31  6  1  0
 24 12  1  0
 29 27  1  0
 24 15  1  0
M  END
>  <cnnaffinity>  (53) 
-6.22584

>  <cnnaffinityIC50>  (53) 
594.5111442741949 nanomolar

>  <smiles>  (53) 
CC1=CC(C)=C2C(C(=O)NCC3=NN=C4CCC(C(F)(F)F)CN43)=CC(C3CC3)=NC2=C1

>  <origin>  (53) 
x1097-x0739-quinoline-P3.sdf

>  <ref_pdb>  (53) 
x0310

>  <butcher #BAD>  (53) 
16

>  <butcher #GOOD>  (53) 
16

>  <butcher #protein clash>  (53) 
5

>  <butcher #solvent space>  (53) 
11

>  <butcher #pocket>  (53) 
16

>  <butcher #P1>  (53) 
12

>  <butcher #P2>  (53) 
0

>  <butcher #P1'>  (53) 
4

>  <butcher #P2'>  (53) 
0

>  <butcher #P3>  (53) 
0

>  <butcher #P4>  (53) 
0

>  <butcher #P5>  (53) 
0

>  <butcher #P6>  (53) 
0

>  <ref_mols>  (53) 
A71x0739a

$$$$
Z1355374184
     RDKit          3D

 29 32  0  0  0  0  0  0  0  0999 V2000
    4.7067   10.9430   27.9077 C   0  0  0  0  0  0  0  0  0  0  0  0
    5.8393   11.3952   27.0143 C   0  0  0  0  0  0  0  0  0  0  0  0
    6.1606   12.7700   26.9266 C   0  0  0  0  0  0  0  0  0  0  0  0
    7.1767   13.2632   26.1429 C   0  0  0  0  0  0  0  0  0  0  0  0
    7.4091   14.7533   26.1699 C   0  0  0  0  0  0  0  0  0  0  0  0
    7.9663   12.3377   25.3896 C   0  0  0  0  0  0  0  0  0  0  0  0
    9.0919   12.6742   24.5863 C   0  0  0  0  0  0  0  0  0  0  0  0
    9.6502   14.0447   24.4367 C   0  0  0  0  0  0  0  0  0  0  0  0
    9.3443   14.8317   23.5811 O   0  0  0  0  0  0  0  0  0  0  0  0
   10.5893   14.2358   25.3696 O   0  0  0  0  0  0  0  0  0  0  0  0
   11.2135   15.5167   25.5051 C   0  0  0  0  0  0  0  0  0  0  0  0
   11.9300   15.4276   26.8148 C   0  0  0  0  0  0  0  0  0  0  0  0
   13.1591   15.0863   27.0314 N   0  0  0  0  0  0  0  0  0  0  0  0
   13.2200   15.0719   28.4099 C   0  0  0  0  0  0  0  0  0  0  0  0
   14.4866   14.7844   29.1639 C   0  0  0  0  0  0  0  0  0  0  0  0
   14.6199   13.4272   29.8394 C   0  0  0  0  0  0  0  0  0  0  0  0
   13.6201   13.1737   30.6915 F   0  0  0  0  0  0  0  0  0  0  0  0
   14.6705   12.4205   28.9550 F   0  0  0  0  0  0  0  0  0  0  0  0
   15.7679   13.4017   30.5406 F   0  0  0  0  0  0  0  0  0  0  0  0
   12.0988   15.3908   28.9911 N   0  0  0  0  0  0  0  0  0  0  0  0
   11.2288   15.6159   27.9343 O   0  0  0  0  0  0  0  0  0  0  0  0
    9.7516   11.6881   23.9124 C   0  0  0  0  0  0  0  0  0  0  0  0
    9.3251   10.3436   24.0093 C   0  0  0  0  0  0  0  0  0  0  0  0
   10.0868    9.3342   23.2064 C   0  0  0  0  0  0  0  0  0  0  0  0
    9.3267    8.5770   22.1676 C   0  0  0  0  0  0  0  0  0  0  0  0
   10.2433    9.6824   21.7476 C   0  0  0  0  0  0  0  0  0  0  0  0
    8.2997    9.9820   24.7398 N   0  0  0  0  0  0  0  0  0  0  0  0
    7.6392   10.9461   25.4480 C   0  0  0  0  0  0  0  0  0  0  0  0
    6.5772   10.5112   26.2759 C   0  0  0  0  0  0  0  0  0  0  0  0
  1  2  1  0
  2  3  2  0
  3  4  1  0
  4  5  1  0
  4  6  2  0
  6  7  1  0
  7  8  1  0
  8  9  2  0
  8 10  1  0
 10 11  1  0
 11 12  1  0
 12 13  2  0
 13 14  1  0
 14 15  1  0
 15 16  1  0
 16 17  1  0
 16 18  1  0
 16 19  1  0
 14 20  2  0
 20 21  1  0
  7 22  2  0
 22 23  1  0
 23 24  1  0
 24 25  1  0
 25 26  1  0
 23 27  2  0
 27 28  1  0
 28 29  2  0
 29  2  1  0
 28  6  1  0
 21 12  1  0
 26 24  1  0
M  END
>  <cnnaffinity>  (54) 
-6.22434

>  <cnnaffinityIC50>  (54) 
596.5680631500929 nanomolar

>  <smiles>  (54) 
CC1=CC(C)=C2C(C(=O)OCC3=NC(CC(F)(F)F)=NO3)=CC(C3CC3)=NC2=C1

>  <origin>  (54) 
x1097-x0739-quinoline-P3.sdf

>  <ref_pdb>  (54) 
x0310

>  <butcher #BAD>  (54) 
11

>  <butcher #GOOD>  (54) 
18

>  <butcher #protein clash>  (54) 
5

>  <butcher #solvent space>  (54) 
6

>  <butcher #pocket>  (54) 
18

>  <butcher #P1>  (54) 
12

>  <butcher #P2>  (54) 
0

>  <butcher #P1'>  (54) 
6

>  <butcher #P2'>  (54) 
0

>  <butcher #P3>  (54) 
0

>  <butcher #P4>  (54) 
0

>  <butcher #P5>  (54) 
0

>  <butcher #P6>  (54) 
0

>  <ref_mols>  (54) 
A71x0739a

$$$$
Z1355138775
     RDKit          3D

 31 35  0  0  0  0  0  0  0  0999 V2000
    4.9327   10.6975   27.7752 C   0  0  0  0  0  0  0  0  0  0  0  0
    5.9908   11.2611   26.8588 C   0  0  0  0  0  0  0  0  0  0  0  0
    6.2814   12.6449   26.8752 C   0  0  0  0  0  0  0  0  0  0  0  0
    7.2538   13.2170   26.0891 C   0  0  0  0  0  0  0  0  0  0  0  0
    7.4124   14.7166   26.1697 C   0  0  0  0  0  0  0  0  0  0  0  0
    8.0352   12.3560   25.2475 C   0  0  0  0  0  0  0  0  0  0  0  0
    9.1358   12.7597   24.4469 C   0  0  0  0  0  0  0  0  0  0  0  0
    9.7091   14.1239   24.4527 C   0  0  0  0  0  0  0  0  0  0  0  0
    9.2372   14.9586   23.7083 O   0  0  0  0  0  0  0  0  0  0  0  0
   10.7478   14.2860   25.3156 N   0  0  0  0  0  0  0  0  0  0  0  0
   11.3463   15.5497   25.7004 C   0  0  0  0  0  0  0  0  0  0  0  0
   11.9710   15.4309   27.0742 C   0  0  0  0  0  0  0  0  0  0  0  0
   11.3034   15.7694   28.2520 C   0  0  0  0  0  0  0  0  0  0  0  0
   11.9511   15.6899   29.4766 C   0  0  0  0  0  0  0  0  0  0  0  0
   13.2792   15.2455   29.4929 C   0  0  0  0  0  0  0  0  0  0  0  0
   14.0974   15.2804   30.6501 N   0  0  0  0  0  0  0  0  0  0  0  0
   15.4738   15.4921   30.6022 C   0  0  0  0  0  0  0  0  0  0  0  0
   15.8732   15.6626   31.8886 C   0  0  0  0  0  0  0  0  0  0  0  0
   14.8033   15.5326   32.7485 N   0  0  0  0  0  0  0  0  0  0  0  0
   13.7599   15.3131   31.9960 C   0  0  0  0  0  0  0  0  0  0  0  0
   12.3942   15.0997   32.5600 C   0  0  0  0  0  0  0  0  0  0  0  0
   13.9023   14.8203   28.3924 N   0  0  0  0  0  0  0  0  0  0  0  0
   13.2678   14.9449   27.2284 C   0  0  0  0  0  0  0  0  0  0  0  0
    9.6849   11.8950   23.5483 C   0  0  0  0  0  0  0  0  0  0  0  0
    9.3018   10.5440   23.5594 C   0  0  0  0  0  0  0  0  0  0  0  0
   10.1034    9.6612   22.6699 C   0  0  0  0  0  0  0  0  0  0  0  0
   11.4701    9.2334   23.1767 C   0  0  0  0  0  0  0  0  0  0  0  0
   10.3428    8.2783   23.1318 C   0  0  0  0  0  0  0  0  0  0  0  0
    8.3748   10.0833   24.3652 N   0  0  0  0  0  0  0  0  0  0  0  0
    7.7140   10.9674   25.1731 C   0  0  0  0  0  0  0  0  0  0  0  0
    6.6815   10.4602   25.9937 C   0  0  0  0  0  0  0  0  0  0  0  0
  1  2  1  0
  2  3  2  0
  3  4  1  0
  4  5  1  0
  4  6  2  0
  6  7  1  0
  7  8  1  0
  8  9  2  0
  8 10  1  0
 10 11  1  0
 11 12  1  0
 12 13  2  0
 13 14  1  0
 14 15  2  0
 15 16  1  0
 16 17  1  0
 17 18  2  0
 18 19  1  0
 19 20  2  0
 20 21  1  0
 15 22  1  0
 22 23  2  0
  7 24  2  0
 24 25  1  0
 25 26  1  0
 26 27  1  0
 27 28  1  0
 25 29  2  0
 29 30  1  0
 30 31  2  0
 31  2  1  0
 30  6  1  0
 23 12  1  0
 28 26  1  0
 20 16  1  0
M  END
>  <cnnaffinity>  (55) 
-6.2221

>  <cnnaffinityIC50>  (55) 
599.652985155335 nanomolar

>  <smiles>  (55) 
CC1=CC(C)=C2C(C(=O)NCC3=CC=C(N4C=CN=C4C)N=C3)=CC(C3CC3)=NC2=C1

>  <origin>  (55) 
x1097-x0739-quinoline-P3.sdf

>  <ref_pdb>  (55) 
x0310

>  <butcher #BAD>  (55) 
12

>  <butcher #GOOD>  (55) 
19

>  <butcher #protein clash>  (55) 
5

>  <butcher #solvent space>  (55) 
7

>  <butcher #pocket>  (55) 
19

>  <butcher #P1>  (55) 
14

>  <butcher #P2>  (55) 
0

>  <butcher #P1'>  (55) 
5

>  <butcher #P2'>  (55) 
0

>  <butcher #P3>  (55) 
0

>  <butcher #P4>  (55) 
0

>  <butcher #P5>  (55) 
0

>  <butcher #P6>  (55) 
0

>  <ref_mols>  (55) 
A71x0739a

$$$$
Z2874108565
     RDKit          3D

 27 30  0  0  0  0  0  0  0  0999 V2000
    4.8415   10.7451   27.5885 C   0  0  0  0  0  0  0  0  0  0  0  0
    5.9682   11.1398   26.6696 C   0  0  0  0  0  0  0  0  0  0  0  0
    6.5047   12.4467   26.7591 C   0  0  0  0  0  0  0  0  0  0  0  0
    7.5284   12.8856   25.9609 C   0  0  0  0  0  0  0  0  0  0  0  0
    8.0040   14.3118   26.1099 C   0  0  0  0  0  0  0  0  0  0  0  0
    8.0811   11.9568   25.0299 C   0  0  0  0  0  0  0  0  0  0  0  0
    9.0649   12.2749   24.0737 C   0  0  0  0  0  0  0  0  0  0  0  0
   10.0980   13.3104   24.2007 C   0  0  0  0  0  0  0  0  0  0  0  0
   10.9791   13.3200   25.0316 O   0  0  0  0  0  0  0  0  0  0  0  0
    9.9784   14.2197   23.1877 N   0  0  0  0  0  0  0  0  0  0  0  0
   10.9326   15.1707   22.8944 C   0  0  0  0  0  0  0  0  0  0  0  0
   11.2203   15.6763   21.6333 C   0  0  0  0  0  0  0  0  0  0  0  0
   10.8307   15.1152   20.3841 C   0  0  0  0  0  0  0  0  0  0  0  0
   10.5087   14.6287   19.3827 N   0  0  0  0  0  0  0  0  0  0  0  0
   11.9839   16.8266   21.9147 C   0  0  0  0  0  0  0  0  0  0  0  0
   12.4779   17.9168   21.0591 C   0  0  0  0  0  0  0  0  0  0  0  0
   12.1824   16.9635   23.2012 N   0  0  0  0  0  0  0  0  0  0  0  0
   11.5701   15.9252   23.8055 N   0  0  0  0  0  0  0  0  0  0  0  0
   11.6781   15.8620   25.2574 C   0  0  0  0  0  0  0  0  0  0  0  0
    9.2544   11.4496   23.0036 C   0  0  0  0  0  0  0  0  0  0  0  0
    8.9461   10.0910   23.1606 C   0  0  0  0  0  0  0  0  0  0  0  0
    9.7455    9.1648   22.2961 C   0  0  0  0  0  0  0  0  0  0  0  0
   10.5684    8.1893   23.0578 C   0  0  0  0  0  0  0  0  0  0  0  0
   11.2301    9.3781   22.4662 C   0  0  0  0  0  0  0  0  0  0  0  0
    8.1718    9.6748   24.1396 N   0  0  0  0  0  0  0  0  0  0  0  0
    7.5923   10.6193   24.9492 C   0  0  0  0  0  0  0  0  0  0  0  0
    6.5002   10.2575   25.7692 C   0  0  0  0  0  0  0  0  0  0  0  0
  1  2  1  0
  2  3  2  0
  3  4  1  0
  4  5  1  0
  4  6  2  0
  6  7  1  0
  7  8  1  0
  8  9  2  0
  8 10  1  0
 10 11  1  0
 11 12  2  0
 12 13  1  0
 13 14  3  0
 12 15  1  0
 15 16  1  0
 15 17  2  0
 17 18  1  0
 18 19  1  0
  7 20  2  0
 20 21  1  0
 21 22  1  0
 22 23  1  0
 23 24  1  0
 21 25  2  0
 25 26  1  0
 26 27  2  0
 27  2  1  0
 26  6  1  0
 18 11  1  0
 24 22  1  0
M  END
>  <cnnaffinity>  (56) 
-6.21945

>  <cnnaffinityIC50>  (56) 
603.3231640745115 nanomolar

>  <smiles>  (56) 
CC1=CC(C)=C2C(C(=O)NC3=C(C#N)C(C)=NN3C)=CC(C3CC3)=NC2=C1

>  <origin>  (56) 
x1097-x0739-quinoline-P3.sdf

>  <ref_pdb>  (56) 
x0310

>  <butcher #BAD>  (56) 
8

>  <butcher #GOOD>  (56) 
19

>  <butcher #protein clash>  (56) 
7

>  <butcher #solvent space>  (56) 
1

>  <butcher #pocket>  (56) 
19

>  <butcher #P1>  (56) 
15

>  <butcher #P2>  (56) 
3

>  <butcher #P1'>  (56) 
1

>  <butcher #P2'>  (56) 
0

>  <butcher #P3>  (56) 
0

>  <butcher #P4>  (56) 
0

>  <butcher #P5>  (56) 
0

>  <butcher #P6>  (56) 
0

>  <ref_mols>  (56) 
A71x0739a

$$$$
Z2187008200
     RDKit          3D

 28 31  0  0  0  0  0  0  0  0999 V2000
    4.7124   10.9059   27.9282 C   0  0  0  0  0  0  0  0  0  0  0  0
    5.8392   11.3810   27.0432 C   0  0  0  0  0  0  0  0  0  0  0  0
    6.1329   12.7623   26.9685 C   0  0  0  0  0  0  0  0  0  0  0  0
    7.1440   13.2825   26.1972 C   0  0  0  0  0  0  0  0  0  0  0  0
    7.3041   14.7837   26.1928 C   0  0  0  0  0  0  0  0  0  0  0  0
    7.9669   12.3660   25.4611 C   0  0  0  0  0  0  0  0  0  0  0  0
    9.1207   12.7165   24.7079 C   0  0  0  0  0  0  0  0  0  0  0  0
    9.6181   14.1148   24.5622 C   0  0  0  0  0  0  0  0  0  0  0  0
    9.1920   14.8563   23.6957 O   0  0  0  0  0  0  0  0  0  0  0  0
   10.5643   14.4820   25.4764 N   0  0  0  0  0  0  0  0  0  0  0  0
   11.4248   15.6117   25.1833 C   0  0  0  0  0  0  0  0  0  0  0  0
   12.4156   15.2983   24.0596 C   0  0  0  0  0  0  0  0  0  0  0  0
   13.4077   14.2289   24.4334 C   0  0  0  0  0  0  0  0  0  0  0  0
   13.3530   13.0695   23.7735 N   0  0  0  0  0  0  0  0  0  0  0  0
   14.2534   12.1311   24.0613 C   0  0  0  0  0  0  0  0  0  0  0  0
   15.2218   12.2980   25.0326 C   0  0  0  0  0  0  0  0  0  0  0  0
   16.1050   11.3129   25.2537 F   0  0  0  0  0  0  0  0  0  0  0  0
   15.2697   13.4579   25.7842 C   0  0  0  0  0  0  0  0  0  0  0  0
   14.3243   14.4160   25.4675 C   0  0  0  0  0  0  0  0  0  0  0  0
   14.2816   15.5637   26.1741 F   0  0  0  0  0  0  0  0  0  0  0  0
    9.8141   11.7449   24.0400 C   0  0  0  0  0  0  0  0  0  0  0  0
    9.3735   10.4044   24.0702 C   0  0  0  0  0  0  0  0  0  0  0  0
   10.1288    9.4261   23.2209 C   0  0  0  0  0  0  0  0  0  0  0  0
    9.3529    8.6999   22.1705 C   0  0  0  0  0  0  0  0  0  0  0  0
   10.2857    9.8056   21.7702 C   0  0  0  0  0  0  0  0  0  0  0  0
    8.3308   10.0270   24.7689 N   0  0  0  0  0  0  0  0  0  0  0  0
    7.6534   10.9704   25.4897 C   0  0  0  0  0  0  0  0  0  0  0  0
    6.5850   10.5151   26.2951 C   0  0  0  0  0  0  0  0  0  0  0  0
  1  2  1  0
  2  3  2  0
  3  4  1  0
  4  5  1  0
  4  6  2  0
  6  7  1  0
  7  8  1  0
  8  9  2  0
  8 10  1  0
 10 11  1  0
 11 12  1  0
 12 13  1  0
 13 14  2  0
 14 15  1  0
 15 16  2  0
 16 17  1  0
 16 18  1  0
 18 19  2  0
 19 20  1  0
  7 21  2  0
 21 22  1  0
 22 23  1  0
 23 24  1  0
 24 25  1  0
 22 26  2  0
 26 27  1  0
 27 28  2  0
 28  2  1  0
 27  6  1  0
 19 13  1  0
 25 23  1  0
M  END
>  <cnnaffinity>  (57) 
-6.21745

>  <cnnaffinityIC50>  (57) 
606.1079772699769 nanomolar

>  <smiles>  (57) 
CC1=CC(C)=C2C(C(=O)NCCC3=NC=C(F)C=C3F)=CC(C3CC3)=NC2=C1

>  <origin>  (57) 
x1097-x0739-quinoline-P3.sdf

>  <ref_pdb>  (57) 
x0310

>  <butcher #BAD>  (57) 
9

>  <butcher #GOOD>  (57) 
19

>  <butcher #protein clash>  (57) 
5

>  <butcher #solvent space>  (57) 
4

>  <butcher #pocket>  (57) 
19

>  <butcher #P1>  (57) 
11

>  <butcher #P2>  (57) 
0

>  <butcher #P1'>  (57) 
6

>  <butcher #P2'>  (57) 
2

>  <butcher #P3>  (57) 
0

>  <butcher #P4>  (57) 
0

>  <butcher #P5>  (57) 
0

>  <butcher #P6>  (57) 
0

>  <ref_mols>  (57) 
A71x0739a

$$$$
Z1371032047
     RDKit          3D

 28 31  0  0  0  0  0  0  0  0999 V2000
   12.4178   13.8460   18.8901 C   0  0  0  0  0  0  0  0  0  0  0  0
   13.1681   14.2318   20.0193 O   0  0  0  0  0  0  0  0  0  0  0  0
   12.5091   15.0749   20.9138 C   0  0  2  0  0  0  0  0  0  0  0  0
   13.2903   16.3638   21.1486 C   0  0  0  0  0  0  0  0  0  0  0  0
   12.3560   14.4577   22.2723 C   0  0  0  0  0  0  0  0  0  0  0  0
   11.6376   15.0868   23.1449 N   0  0  0  0  0  0  0  0  0  0  0  0
   11.9597   14.6964   24.4218 C   0  0  0  0  0  0  0  0  0  0  0  0
   11.2456   15.4553   25.5084 C   0  0  0  0  0  0  0  0  0  0  0  0
   10.0227   14.7887   25.9672 N   0  0  0  0  0  0  0  0  0  0  0  0
    9.0523   14.4116   25.0341 C   0  0  0  0  0  0  0  0  0  0  0  0
    8.5246   15.1834   24.2643 O   0  0  0  0  0  0  0  0  0  0  0  0
    8.6836   12.9497   25.0588 C   0  0  0  0  0  0  0  0  0  0  0  0
    9.4652   12.0877   24.3280 C   0  0  0  0  0  0  0  0  0  0  0  0
    9.1844   10.6994   24.3085 C   0  0  0  0  0  0  0  0  0  0  0  0
   10.0843    9.8036   23.5047 C   0  0  0  0  0  0  0  0  0  0  0  0
   10.2991   10.1293   22.0523 C   0  0  0  0  0  0  0  0  0  0  0  0
    9.4891    8.9295   22.4405 C   0  0  0  0  0  0  0  0  0  0  0  0
    8.1707   10.1840   24.9560 N   0  0  0  0  0  0  0  0  0  0  0  0
    7.3766   11.0184   25.6893 C   0  0  0  0  0  0  0  0  0  0  0  0
    6.3014   10.4198   26.3855 C   0  0  0  0  0  0  0  0  0  0  0  0
    5.4743   11.1526   27.1873 C   0  0  0  0  0  0  0  0  0  0  0  0
    4.3792   10.5035   27.9956 C   0  0  0  0  0  0  0  0  0  0  0  0
    5.6613   12.5518   27.2518 C   0  0  0  0  0  0  0  0  0  0  0  0
    6.6571   13.2092   26.5687 C   0  0  0  0  0  0  0  0  0  0  0  0
    6.6971   14.7099   26.6834 C   0  0  0  0  0  0  0  0  0  0  0  0
    7.5733   12.4327   25.7836 C   0  0  0  0  0  0  0  0  0  0  0  0
   12.8690   13.6803   24.4880 C   0  0  0  0  0  0  0  0  0  0  0  0
   13.3017   13.1602   22.9025 S   0  0  0  0  0  0  0  0  0  0  0  0
  1  2  1  0
  2  3  1  0
  3  4  1  1
  3  5  1  0
  5  6  2  0
  6  7  1  0
  7  8  1  0
  8  9  1  0
  9 10  1  0
 10 11  2  0
 10 12  1  0
 12 13  2  0
 13 14  1  0
 14 15  1  0
 15 16  1  0
 16 17  1  0
 14 18  2  0
 18 19  1  0
 19 20  2  0
 20 21  1  0
 21 22  1  0
 21 23  2  0
 23 24  1  0
 24 25  1  0
 24 26  2  0
  7 27  2  0
 27 28  1  0
 28  5  1  0
 26 12  1  0
 17 15  1  0
 26 19  1  0
M  END
>  <cnnaffinity>  (58) 
-6.20774

>  <cnnaffinityIC50>  (58) 
619.8120282095713 nanomolar

>  <smiles>  (58) 
COC(C)C1=NC(CNC(=O)C2=CC(C3CC3)=NC3=CC(C)=CC(C)=C23)=CS1

>  <origin>  (58) 
x1097-x0739-quinoline-P3.sdf

>  <ref_pdb>  (58) 
x0310

>  <butcher #BAD>  (58) 
12

>  <butcher #GOOD>  (58) 
16

>  <butcher #protein clash>  (58) 
7

>  <butcher #solvent space>  (58) 
5

>  <butcher #pocket>  (58) 
16

>  <butcher #P1>  (58) 
11

>  <butcher #P2>  (58) 
0

>  <butcher #P1'>  (58) 
5

>  <butcher #P2'>  (58) 
0

>  <butcher #P3>  (58) 
0

>  <butcher #P4>  (58) 
0

>  <butcher #P5>  (58) 
0

>  <butcher #P6>  (58) 
0

>  <ref_mols>  (58) 
A71x0739a

$$$$
PV-004582511652
     RDKit          3D

 28 31  0  0  0  0  0  0  0  0999 V2000
    5.0137   10.9554   27.7034 C   0  0  0  0  0  0  0  0  0  0  0  0
    6.1046   11.5390   26.8377 C   0  0  0  0  0  0  0  0  0  0  0  0
    6.3986   12.9223   26.8602 C   0  0  0  0  0  0  0  0  0  0  0  0
    7.3762   13.5184   26.0892 C   0  0  0  0  0  0  0  0  0  0  0  0
    7.5258   15.0115   26.2454 C   0  0  0  0  0  0  0  0  0  0  0  0
    8.1578   12.6929   25.2043 C   0  0  0  0  0  0  0  0  0  0  0  0
    9.1930   13.1178   24.3027 C   0  0  0  0  0  0  0  0  0  0  0  0
    9.8786   14.4645   24.1962 C   0  0  0  0  0  0  0  0  0  0  0  0
   10.1389   15.2050   25.1301 O   0  0  0  0  0  0  0  0  0  0  0  0
   10.2265   14.7332   22.8960 N   0  0  0  0  0  0  0  0  0  0  0  0
   11.1131   15.7735   22.4361 C   0  0  0  0  0  0  0  0  0  0  0  0
   12.4756   15.3345   21.9330 C   0  0  0  0  0  0  0  0  0  0  0  0
   13.3042   14.6062   22.8451 N   0  0  0  0  0  0  0  0  0  0  0  0
   13.1438   13.2671   22.9825 C   0  0  0  0  0  0  0  0  0  0  0  0
   12.4288   12.6219   22.2361 O   0  0  0  0  0  0  0  0  0  0  0  0
   13.9191   12.6093   24.1233 C   0  0  0  0  0  0  0  0  0  0  0  0
   14.3299   13.5583   25.1581 C   0  0  0  0  0  0  0  0  0  0  0  0
   14.6405   14.3749   25.9165 N   0  0  0  0  0  0  0  0  0  0  0  0
   12.5914   15.0671   20.4551 C   0  0  0  0  0  0  0  0  0  0  0  0
   13.1759   16.3134   21.0480 C   0  0  0  0  0  0  0  0  0  0  0  0
    9.7122   12.1717   23.4479 C   0  0  0  0  0  0  0  0  0  0  0  0
    9.3850   10.8142   23.5438 C   0  0  0  0  0  0  0  0  0  0  0  0
   10.1074    9.8898   22.6240 C   0  0  0  0  0  0  0  0  0  0  0  0
   10.1191    8.4547   22.9839 C   0  0  0  0  0  0  0  0  0  0  0  0
   11.3953    9.2195   23.0545 C   0  0  0  0  0  0  0  0  0  0  0  0
    8.5029   10.3760   24.3987 N   0  0  0  0  0  0  0  0  0  0  0  0
    7.8561   11.2896   25.1792 C   0  0  0  0  0  0  0  0  0  0  0  0
    6.8394   10.7484   26.0037 C   0  0  0  0  0  0  0  0  0  0  0  0
  1  2  1  0
  2  3  2  0
  3  4  1  0
  4  5  1  0
  4  6  2  0
  6  7  1  0
  7  8  1  0
  8  9  2  0
  8 10  1  0
 10 11  1  0
 11 12  1  0
 12 13  1  0
 13 14  1  0
 14 15  2  0
 14 16  1  0
 16 17  1  0
 17 18  3  0
 12 19  1  0
 19 20  1  0
  7 21  2  0
 21 22  1  0
 22 23  1  0
 23 24  1  0
 24 25  1  0
 22 26  2  0
 26 27  1  0
 27 28  2  0
 28  2  1  0
 27  6  1  0
 20 12  1  0
 25 23  1  0
M  END
>  <cnnaffinity>  (59) 
-6.2038

>  <cnnaffinityIC50>  (59) 
625.4606617424877 nanomolar

>  <smiles>  (59) 
CC1=CC(C)=C2C(C(=O)NCC3(NC(=O)CC#N)CC3)=CC(C3CC3)=NC2=C1

>  <origin>  (59) 
x1097-x0739-quinoline-P3.sdf

>  <ref_pdb>  (59) 
x0310

>  <butcher #BAD>  (59) 
9

>  <butcher #GOOD>  (59) 
19

>  <butcher #protein clash>  (59) 
6

>  <butcher #solvent space>  (59) 
3

>  <butcher #pocket>  (59) 
19

>  <butcher #P1>  (59) 
13

>  <butcher #P2>  (59) 
1

>  <butcher #P1'>  (59) 
5

>  <butcher #P2'>  (59) 
0

>  <butcher #P3>  (59) 
0

>  <butcher #P4>  (59) 
0

>  <butcher #P5>  (59) 
0

>  <butcher #P6>  (59) 
0

>  <ref_mols>  (59) 
A71x0739a

$$$$
Z1360032696
     RDKit          3D

 28 32  0  0  0  0  0  0  0  0999 V2000
    4.6900   10.7976   28.0294 C   0  0  0  0  0  0  0  0  0  0  0  0
    5.7586   11.3055   27.0943 C   0  0  0  0  0  0  0  0  0  0  0  0
    6.0629   12.6839   27.0186 C   0  0  0  0  0  0  0  0  0  0  0  0
    7.0659   13.1873   26.2237 C   0  0  0  0  0  0  0  0  0  0  0  0
    7.3001   14.6778   26.2690 C   0  0  0  0  0  0  0  0  0  0  0  0
    7.8211   12.2679   25.4157 C   0  0  0  0  0  0  0  0  0  0  0  0
    8.9013   12.6026   24.5519 C   0  0  0  0  0  0  0  0  0  0  0  0
    9.4800   13.9653   24.3506 C   0  0  0  0  0  0  0  0  0  0  0  0
    8.9228   14.8714   23.7638 O   0  0  0  0  0  0  0  0  0  0  0  0
   10.7497   14.0244   24.8505 N   0  0  0  0  0  0  0  0  0  0  0  0
   11.5400   15.2345   24.9806 C   0  0  2  0  0  0  0  0  0  0  0  0
   12.9135   15.0250   24.3309 C   0  0  0  0  0  0  0  0  0  0  0  0
   13.8612   14.1563   25.1694 C   0  0  0  0  0  0  0  0  0  0  0  0
   14.0031   14.6705   26.6077 C   0  0  0  0  0  0  0  0  0  0  0  0
   12.7118   15.0724   27.1337 N   0  0  0  0  0  0  0  0  0  0  0  0
   12.5078   15.2436   28.4524 N   0  0  0  0  0  0  0  0  0  0  0  0
   11.3242   15.8262   28.4918 C   0  0  0  0  0  0  0  0  0  0  0  0
   10.6650   16.2132   29.7727 C   0  0  0  0  0  0  0  0  0  0  0  0
   10.7492   16.0366   27.2678 N   0  0  0  0  0  0  0  0  0  0  0  0
   11.6625   15.5446   26.4419 C   0  0  0  0  0  0  0  0  0  0  0  0
    9.5458   11.6126   23.8657 C   0  0  0  0  0  0  0  0  0  0  0  0
    9.1921   10.2563   24.0221 C   0  0  0  0  0  0  0  0  0  0  0  0
    9.9945    9.2451   23.2513 C   0  0  0  0  0  0  0  0  0  0  0  0
    9.3000    8.5364   22.1332 C   0  0  0  0  0  0  0  0  0  0  0  0
   10.2785    9.6308   21.8234 C   0  0  0  0  0  0  0  0  0  0  0  0
    8.1894    9.8984   24.7852 N   0  0  0  0  0  0  0  0  0  0  0  0
    7.5163   10.8705   25.4768 C   0  0  0  0  0  0  0  0  0  0  0  0
    6.4638   10.4386   26.3104 C   0  0  0  0  0  0  0  0  0  0  0  0
  1  2  1  0
  2  3  2  0
  3  4  1  0
  4  5  1  0
  4  6  2  0
  6  7  1  0
  7  8  1  0
  8  9  2  0
  8 10  1  0
 11 10  1  1
 11 12  1  0
 12 13  1  0
 13 14  1  0
 14 15  1  0
 15 16  1  0
 16 17  2  0
 17 18  1  0
 17 19  1  0
 19 20  2  0
  7 21  2  0
 21 22  1  0
 22 23  1  0
 23 24  1  0
 24 25  1  0
 22 26  2  0
 26 27  1  0
 27 28  2  0
 28  2  1  0
 27  6  1  0
 20 11  1  0
 25 23  1  0
 20 15  1  0
M  END
>  <cnnaffinity>  (60) 
-6.20006

>  <cnnaffinityIC50>  (60) 
630.8701805228623 nanomolar

>  <smiles>  (60) 
CC1=CC(C)=C2C(C(=O)NC3CCCN4N=C(C)N=C34)=CC(C3CC3)=NC2=C1

>  <origin>  (60) 
x1097-x0739-quinoline-P3.sdf

>  <ref_pdb>  (60) 
x0310

>  <butcher #BAD>  (60) 
7

>  <butcher #GOOD>  (60) 
21

>  <butcher #protein clash>  (60) 
3

>  <butcher #solvent space>  (60) 
4

>  <butcher #pocket>  (60) 
21

>  <butcher #P1>  (60) 
12

>  <butcher #P2>  (60) 
0

>  <butcher #P1'>  (60) 
9

>  <butcher #P2'>  (60) 
0

>  <butcher #P3>  (60) 
0

>  <butcher #P4>  (60) 
0

>  <butcher #P5>  (60) 
0

>  <butcher #P6>  (60) 
0

>  <ref_mols>  (60) 
A71x0739a

$$$$
Z2720830794
     RDKit          3D

 26 28  0  0  0  0  0  0  0  0999 V2000
   11.9590   13.9721   24.2874 C   0  0  0  0  0  0  0  0  0  0  0  0
   11.1714   13.4698   23.0800 C   0  0  2  0  0  0  0  0  0  0  0  0
   10.7603   12.1159   23.2398 O   0  0  0  0  0  0  0  0  0  0  0  0
    9.6740   11.8762   24.0162 C   0  0  0  0  0  0  0  0  0  0  0  0
    9.2780   10.5092   24.1194 C   0  0  0  0  0  0  0  0  0  0  0  0
    8.2664   10.0902   24.8278 N   0  0  0  0  0  0  0  0  0  0  0  0
    7.5487   11.0210   25.5297 C   0  0  0  0  0  0  0  0  0  0  0  0
    6.4556   10.5813   26.3168 C   0  0  0  0  0  0  0  0  0  0  0  0
    5.7310   11.4783   27.0556 C   0  0  0  0  0  0  0  0  0  0  0  0
    6.0533   12.8569   27.0344 C   0  0  0  0  0  0  0  0  0  0  0  0
    7.0961   13.3061   26.2683 C   0  0  0  0  0  0  0  0  0  0  0  0
    7.8623   12.3982   25.4953 C   0  0  0  0  0  0  0  0  0  0  0  0
    8.9495   12.8208   24.6914 C   0  0  0  0  0  0  0  0  0  0  0  0
   12.0986   13.4671   21.8720 C   0  0  0  0  0  0  0  0  0  0  0  0
   13.0585   12.7312   21.8281 O   0  0  0  0  0  0  0  0  0  0  0  0
   11.8347   14.3914   20.8946 N   0  0  0  0  0  0  0  0  0  0  0  0
   11.5888   15.7777   21.2351 C   0  0  0  0  0  0  0  0  0  0  0  0
   10.4969   16.3071   20.3339 C   0  0  0  0  0  0  0  0  0  0  0  0
   10.4805   15.7183   18.9150 C   0  0  0  0  0  0  0  0  0  0  0  0
   10.3045   16.8475   17.9696 N   0  0  0  0  0  0  0  0  0  0  0  0
    8.8246   17.5842   17.8098 S   0  0  0  0  0  6  0  0  0  0  0  0
    7.9841   17.4038   19.2441 N   0  0  0  0  0  0  0  0  0  0  0  0
    8.0761   16.8286   16.8344 O   0  0  0  0  0  0  0  0  0  0  0  0
    9.1015   18.9987   17.6519 O   0  0  0  0  0  0  0  0  0  0  0  0
   11.7492   14.9389   18.4960 C   0  0  0  0  0  0  0  0  0  0  0  0
   12.5382   14.2576   19.6315 C   0  0  0  0  0  0  0  0  0  0  0  0
  2  1  1  1
  2  3  1  0
  3  4  1  0
  4  5  2  0
  5  6  1  0
  6  7  2  0
  7  8  1  0
  8  9  2  0
  9 10  1  0
 10 11  2  0
 11 12  1  0
 12 13  2  0
  2 14  1  0
 14 15  2  0
 14 16  1  0
 16 17  1  0
 17 18  1  0
 18 19  1  0
 19 20  1  0
 20 21  1  0
 21 22  1  0
 21 23  2  0
 21 24  2  0
 19 25  1  0
 25 26  1  0
 13  4  1  0
 26 16  1  0
 12  7  1  0
M  END
>  <cnnaffinity>  (61) 
-6.1348

>  <cnnaffinityIC50>  (61) 
733.1620890272109 nanomolar

>  <smiles>  (61) 
C[C@H](OC1=CN=C2C=CC=CC2=C1)C(=O)N1CCC(NS(N)(=O)=O)CC1

>  <origin>  (61) 
x1097-x0922.sdf

>  <ref_pdb>  (61) 
x0310

>  <butcher #BAD>  (61) 
9

>  <butcher #GOOD>  (61) 
17

>  <butcher #protein clash>  (61) 
6

>  <butcher #solvent space>  (61) 
3

>  <butcher #pocket>  (61) 
17

>  <butcher #P1>  (61) 
11

>  <butcher #P2>  (61) 
5

>  <butcher #P1'>  (61) 
1

>  <butcher #P2'>  (61) 
0

>  <butcher #P3>  (61) 
0

>  <butcher #P4>  (61) 
0

>  <butcher #P5>  (61) 
0

>  <butcher #P6>  (61) 
0

>  <ref_mols>  (61) 
A71x0922a

$$$$
Z1962480676
     RDKit          3D

 26 28  0  0  0  0  0  0  0  0999 V2000
   13.1811   12.9632   22.6765 C   0  0  0  0  0  0  0  0  0  0  0  0
   11.8027   12.9207   23.3487 C   0  0  2  0  0  0  0  0  0  0  0  0
   11.2188   11.5961   23.2801 O   0  0  0  0  0  0  0  0  0  0  0  0
   10.0233   11.4255   23.9631 C   0  0  0  0  0  0  0  0  0  0  0  0
    9.4828   10.1321   24.1055 C   0  0  0  0  0  0  0  0  0  0  0  0
    8.3668    9.8569   24.8123 N   0  0  0  0  0  0  0  0  0  0  0  0
    7.7301   10.8776   25.4170 C   0  0  0  0  0  0  0  0  0  0  0  0
    6.6008   10.6039   26.1929 C   0  0  0  0  0  0  0  0  0  0  0  0
    5.9191   11.6273   26.8671 C   0  0  0  0  0  0  0  0  0  0  0  0
    6.3555   12.9495   26.7373 C   0  0  0  0  0  0  0  0  0  0  0  0
    7.4799   13.2466   25.9593 C   0  0  0  0  0  0  0  0  0  0  0  0
    8.1811   12.2138   25.3152 C   0  0  0  0  0  0  0  0  0  0  0  0
    9.3434   12.4815   24.5902 C   0  0  0  0  0  0  0  0  0  0  0  0
   10.8907   13.9368   22.6484 C   0  0  0  0  0  0  0  0  0  0  0  0
   10.4592   14.9047   23.2558 O   0  0  0  0  0  0  0  0  0  0  0  0
   10.5156   13.7663   21.3517 N   0  0  0  0  0  0  0  0  0  0  0  0
    9.0656   14.5043   21.0129 S   0  0  0  0  0  6  0  0  0  0  0  0
    8.3385   14.8905   22.2194 O   0  0  0  0  0  0  0  0  0  0  0  0
    8.2764   13.6193   20.1888 O   0  0  0  0  0  0  0  0  0  0  0  0
    9.5396   15.7726   19.9321 C   0  0  0  0  0  0  0  0  0  0  0  0
   10.5472   15.3684   19.0878 C   0  0  0  0  0  0  0  0  0  0  0  0
   10.8315   16.0687   18.0026 N   0  0  0  0  0  0  0  0  0  0  0  0
   10.1112   17.1684   17.7432 C   0  0  0  0  0  0  0  0  0  0  0  0
    9.0953   17.6215   18.5936 C   0  0  0  0  0  0  0  0  0  0  0  0
    8.1393   19.2167   18.2763 Br  0  0  0  0  0  0  0  0  0  0  0  0
    8.7822   16.9078   19.7242 C   0  0  0  0  0  0  0  0  0  0  0  0
  2  1  1  6
  2  3  1  0
  3  4  1  0
  4  5  2  0
  5  6  1  0
  6  7  2  0
  7  8  1  0
  8  9  2  0
  9 10  1  0
 10 11  2  0
 11 12  1  0
 12 13  2  0
  2 14  1  0
 14 15  2  0
 14 16  1  0
 16 17  1  0
 17 18  2  0
 17 19  2  0
 17 20  1  0
 20 21  2  0
 21 22  1  0
 22 23  2  0
 23 24  1  0
 24 25  1  0
 24 26  2  0
 13  4  1  0
 26 20  1  0
 12  7  1  0
M  END
>  <cnnaffinity>  (62) 
-6.12086

>  <cnnaffinityIC50>  (62) 
757.0769084490531 nanomolar

>  <smiles>  (62) 
C[C@H](OC1=CN=C2C=CC=CC2=C1)C(=O)NS(=O)(=O)C1=CN=CC(Br)=C1

>  <origin>  (62) 
x1097-x0922.sdf

>  <ref_pdb>  (62) 
x0310

>  <butcher #BAD>  (62) 
5

>  <butcher #GOOD>  (62) 
21

>  <butcher #protein clash>  (62) 
5

>  <butcher #solvent space>  (62) 
0

>  <butcher #pocket>  (62) 
21

>  <butcher #P1>  (62) 
15

>  <butcher #P2>  (62) 
6

>  <butcher #P1'>  (62) 
0

>  <butcher #P2'>  (62) 
0

>  <butcher #P3>  (62) 
0

>  <butcher #P4>  (62) 
0

>  <butcher #P5>  (62) 
0

>  <butcher #P6>  (62) 
0

>  <ref_mols>  (62) 
A71x0922a

$$$$
PV-003443640447
     RDKit          3D

 25 28  0  0  0  0  0  0  0  0999 V2000
   12.2784   13.7148   24.7162 C   0  0  0  0  0  0  0  0  0  0  0  0
   11.5092   13.4771   23.4515 C   0  0  2  0  0  0  0  0  0  0  0  0
   10.9816   12.1462   23.3675 O   0  0  0  0  0  0  0  0  0  0  0  0
    9.8282   11.8870   24.0245 C   0  0  0  0  0  0  0  0  0  0  0  0
    9.4139   10.5229   24.0557 C   0  0  0  0  0  0  0  0  0  0  0  0
    8.3734   10.0857   24.7133 N   0  0  0  0  0  0  0  0  0  0  0  0
    7.6431   10.9958   25.4297 C   0  0  0  0  0  0  0  0  0  0  0  0
    6.5525   10.5458   26.2169 C   0  0  0  0  0  0  0  0  0  0  0  0
    5.8326   11.4303   26.9772 C   0  0  0  0  0  0  0  0  0  0  0  0
    6.1437   12.8113   26.9671 C   0  0  0  0  0  0  0  0  0  0  0  0
    7.1752   13.2723   26.1938 C   0  0  0  0  0  0  0  0  0  0  0  0
    7.9456   12.3753   25.4159 C   0  0  0  0  0  0  0  0  0  0  0  0
    9.0449   12.8188   24.6458 C   0  0  0  0  0  0  0  0  0  0  0  0
   12.3926   13.5892   22.2332 C   0  0  0  0  0  0  0  0  0  0  0  0
   13.4884   13.0739   22.2421 O   0  0  0  0  0  0  0  0  0  0  0  0
   11.9265   14.3192   21.1338 N   0  0  0  0  0  0  0  0  0  0  0  0
   12.9129   14.8729   20.2097 C   0  0  0  0  0  0  0  0  0  0  0  0
   12.5021   14.6326   18.7714 C   0  0  0  0  0  0  0  0  0  0  0  0
   11.2144   15.2844   18.5695 N   0  0  0  0  0  0  0  0  0  0  0  0
   10.2485   14.8508   19.4908 C   0  0  0  0  0  0  0  0  0  0  0  0
    8.9045   14.8076   19.2153 C   0  0  0  0  0  0  0  0  0  0  0  0
    7.9876   14.3004   20.0504 N   0  0  0  0  0  0  0  0  0  0  0  0
    8.4188   13.9330   21.2363 C   0  0  0  0  0  0  0  0  0  0  0  0
    9.6736   13.9776   21.6491 N   0  0  0  0  0  0  0  0  0  0  0  0
   10.5922   14.3921   20.7790 C   0  0  0  0  0  0  0  0  0  0  0  0
  2  1  1  1
  2  3  1  0
  3  4  1  0
  4  5  2  0
  5  6  1  0
  6  7  2  0
  7  8  1  0
  8  9  2  0
  9 10  1  0
 10 11  2  0
 11 12  1  0
 12 13  2  0
  2 14  1  0
 14 15  2  0
 14 16  1  0
 16 17  1  0
 17 18  1  0
 18 19  1  0
 19 20  1  0
 20 21  2  0
 21 22  1  0
 22 23  2  0
 23 24  1  0
 24 25  2  0
 13  4  1  0
 25 16  1  0
 12  7  1  0
 25 20  1  0
M  END
>  <cnnaffinity>  (63) 
-6.08172

>  <cnnaffinityIC50>  (63) 
828.4761298637156 nanomolar

>  <smiles>  (63) 
C[C@H](OC1=CN=C2C=CC=CC2=C1)C(=O)N1CCNC2=CN=CN=C21

>  <origin>  (63) 
x1097-x0922.sdf

>  <ref_pdb>  (63) 
x0310

>  <butcher #BAD>  (63) 
8

>  <butcher #GOOD>  (63) 
17

>  <butcher #protein clash>  (63) 
4

>  <butcher #solvent space>  (63) 
4

>  <butcher #pocket>  (63) 
17

>  <butcher #P1>  (63) 
13

>  <butcher #P2>  (63) 
3

>  <butcher #P1'>  (63) 
1

>  <butcher #P2'>  (63) 
0

>  <butcher #P3>  (63) 
0

>  <butcher #P4>  (63) 
0

>  <butcher #P5>  (63) 
0

>  <butcher #P6>  (63) 
0

>  <ref_mols>  (63) 
A71x0922a

$$$$
Z1962934503
     RDKit          3D

 25 26  0  0  0  0  0  0  0  0999 V2000
   13.0836   13.1159   22.6333 C   0  0  0  0  0  0  0  0  0  0  0  0
   11.7120   13.2301   23.2769 C   0  0  2  0  0  0  0  0  0  0  0  0
   11.0636   11.9580   23.2124 O   0  0  0  0  0  0  0  0  0  0  0  0
    9.9457   11.7649   23.9758 C   0  0  0  0  0  0  0  0  0  0  0  0
    9.4945   10.4130   24.0810 C   0  0  0  0  0  0  0  0  0  0  0  0
    8.4523   10.0361   24.7709 N   0  0  0  0  0  0  0  0  0  0  0  0
    7.7514   10.9989   25.4461 C   0  0  0  0  0  0  0  0  0  0  0  0
    6.6235   10.6086   26.2143 C   0  0  0  0  0  0  0  0  0  0  0  0
    5.9042   11.5415   26.9142 C   0  0  0  0  0  0  0  0  0  0  0  0
    6.2727   12.9081   26.8730 C   0  0  0  0  0  0  0  0  0  0  0  0
    7.3541   13.3075   26.1329 C   0  0  0  0  0  0  0  0  0  0  0  0
    8.1168   12.3631   25.4007 C   0  0  0  0  0  0  0  0  0  0  0  0
    9.2466   12.7439   24.6282 C   0  0  0  0  0  0  0  0  0  0  0  0
   10.9261   14.3058   22.5387 C   0  0  0  0  0  0  0  0  0  0  0  0
   10.9686   15.4745   22.8564 O   0  0  0  0  0  0  0  0  0  0  0  0
   10.2354   13.8273   21.4427 N   0  0  0  0  0  0  0  0  0  0  0  0
    9.0375   14.7279   20.6993 S   0  0  0  0  0  6  0  0  0  0  0  0
    8.5194   13.9059   19.6363 O   0  0  0  0  0  0  0  0  0  0  0  0
    8.0919   15.1586   21.7062 O   0  0  0  0  0  0  0  0  0  0  0  0
    9.9862   16.0583   19.9106 C   0  0  0  0  0  0  0  0  0  0  0  0
   10.2762   15.7473   18.4070 C   0  0  0  0  0  0  0  0  0  0  0  0
   10.9066   16.9048   17.5827 C   0  0  0  0  0  0  0  0  0  0  0  0
   11.1893   14.5290   18.2230 C   0  0  0  0  0  0  0  0  0  0  0  0
    8.9315   15.8119   17.8232 C   0  0  0  0  0  0  0  0  0  0  0  0
    7.9877   16.3506   17.4342 N   0  0  0  0  0  0  0  0  0  0  0  0
  2  1  1  6
  2  3  1  0
  3  4  1  0
  4  5  2  0
  5  6  1  0
  6  7  2  0
  7  8  1  0
  8  9  2  0
  9 10  1  0
 10 11  2  0
 11 12  1  0
 12 13  2  0
  2 14  1  0
 14 15  2  0
 14 16  1  0
 16 17  1  0
 17 18  2  0
 17 19  2  0
 17 20  1  0
 20 21  1  0
 21 22  1  0
 21 23  1  0
 21 24  1  0
 24 25  3  0
 13  4  1  0
 12  7  1  0
M  END
>  <cnnaffinity>  (64) 
-6.01395

>  <cnnaffinityIC50>  (64) 
968.389339786518 nanomolar

>  <smiles>  (64) 
C[C@H](OC1=CN=C2C=CC=CC2=C1)C(=O)NS(=O)(=O)CC(C)(C)C#N

>  <origin>  (64) 
x1097-x0922.sdf

>  <ref_pdb>  (64) 
x0310

>  <butcher #BAD>  (64) 
7

>  <butcher #GOOD>  (64) 
18

>  <butcher #protein clash>  (64) 
7

>  <butcher #solvent space>  (64) 
0

>  <butcher #pocket>  (64) 
18

>  <butcher #P1>  (64) 
14

>  <butcher #P2>  (64) 
4

>  <butcher #P1'>  (64) 
0

>  <butcher #P2'>  (64) 
0

>  <butcher #P3>  (64) 
0

>  <butcher #P4>  (64) 
0

>  <butcher #P5>  (64) 
0

>  <butcher #P6>  (64) 
0

>  <ref_mols>  (64) 
A71x0922a

$$$$
PV-003719802724
     RDKit          3D

 25 27  0  0  0  0  0  0  0  0999 V2000
   12.0184   13.9896   24.2737 C   0  0  0  0  0  0  0  0  0  0  0  0
   11.1984   13.5990   23.0471 C   0  0  2  0  0  0  0  0  0  0  0  0
   10.7337   12.2538   23.1472 O   0  0  0  0  0  0  0  0  0  0  0  0
    9.6815   11.9858   23.9578 C   0  0  0  0  0  0  0  0  0  0  0  0
    9.3174   10.6077   24.0455 C   0  0  0  0  0  0  0  0  0  0  0  0
    8.3288   10.1514   24.7640 N   0  0  0  0  0  0  0  0  0  0  0  0
    7.5994   11.0538   25.4911 C   0  0  0  0  0  0  0  0  0  0  0  0
    6.5206   10.5827   26.2813 C   0  0  0  0  0  0  0  0  0  0  0  0
    5.7823   11.4571   27.0345 C   0  0  0  0  0  0  0  0  0  0  0  0
    6.0835   12.8401   27.0343 C   0  0  0  0  0  0  0  0  0  0  0  0
    7.1149   13.3159   26.2699 C   0  0  0  0  0  0  0  0  0  0  0  0
    7.8888   12.4363   25.4765 C   0  0  0  0  0  0  0  0  0  0  0  0
    8.9561   12.9015   24.6677 C   0  0  0  0  0  0  0  0  0  0  0  0
   12.0776   13.5842   21.7958 C   0  0  0  0  0  0  0  0  0  0  0  0
   12.9437   12.7480   21.6742 O   0  0  0  0  0  0  0  0  0  0  0  0
   11.8508   14.5503   20.8516 N   0  0  0  0  0  0  0  0  0  0  0  0
   12.4075   14.3860   19.5191 C   0  0  0  0  0  0  0  0  0  0  0  0
   11.5344   15.0780   18.4418 C   0  0  0  0  0  0  0  0  0  0  0  0
   10.2592   15.7739   18.9531 C   0  0  0  0  0  0  0  0  0  0  0  0
    9.1705   14.8007   19.0748 N   0  0  0  0  0  0  0  0  0  0  0  0
    9.8622   16.9511   18.0243 C   0  0  0  0  0  0  0  0  0  0  0  0
    8.6332   17.5109   18.3211 N   0  0  0  0  0  0  0  0  0  0  0  0
   10.5610   17.4014   17.1386 O   0  0  0  0  0  0  0  0  0  0  0  0
   10.4436   16.4294   20.3278 C   0  0  0  0  0  0  0  0  0  0  0  0
   11.5946   15.9306   21.1851 C   0  0  0  0  0  0  0  0  0  0  0  0
  2  1  1  1
  2  3  1  0
  3  4  1  0
  4  5  2  0
  5  6  1  0
  6  7  2  0
  7  8  1  0
  8  9  2  0
  9 10  1  0
 10 11  2  0
 11 12  1  0
 12 13  2  0
  2 14  1  0
 14 15  2  0
 14 16  1  0
 16 17  1  0
 17 18  1  0
 18 19  1  0
 19 20  1  0
 19 21  1  0
 21 22  1  0
 21 23  2  0
 19 24  1  0
 24 25  1  0
 13  4  1  0
 25 16  1  0
 12  7  1  0
M  END
>  <cnnaffinity>  (65) 
-6.01054

>  <cnnaffinityIC50>  (65) 
976.0228832606103 nanomolar

>  <smiles>  (65) 
C[C@H](OC1=CN=C2C=CC=CC2=C1)C(=O)N1CCC(N)(C(N)=O)CC1

>  <origin>  (65) 
x1097-x0922.sdf

>  <ref_pdb>  (65) 
x0310

>  <butcher #BAD>  (65) 
9

>  <butcher #GOOD>  (65) 
16

>  <butcher #protein clash>  (65) 
6

>  <butcher #solvent space>  (65) 
3

>  <butcher #pocket>  (65) 
16

>  <butcher #P1>  (65) 
11

>  <butcher #P2>  (65) 
4

>  <butcher #P1'>  (65) 
1

>  <butcher #P2'>  (65) 
0

>  <butcher #P3>  (65) 
0

>  <butcher #P4>  (65) 
0

>  <butcher #P5>  (65) 
0

>  <butcher #P6>  (65) 
0

>  <ref_mols>  (65) 
A71x0922a

$$$$
Z1941884464
     RDKit          3D

 26 28  0  0  0  0  0  0  0  0999 V2000
   11.9521   13.8086   24.2980 C   0  0  0  0  0  0  0  0  0  0  0  0
   11.1783   13.3576   23.0592 C   0  0  2  0  0  0  0  0  0  0  0  0
   10.7242   12.0085   23.1813 O   0  0  0  0  0  0  0  0  0  0  0  0
    9.6577   11.7777   23.9939 C   0  0  0  0  0  0  0  0  0  0  0  0
    9.2578   10.4125   24.1258 C   0  0  0  0  0  0  0  0  0  0  0  0
    8.2503   10.0075   24.8509 N   0  0  0  0  0  0  0  0  0  0  0  0
    7.5370   10.9479   25.5452 C   0  0  0  0  0  0  0  0  0  0  0  0
    6.4411   10.5290   26.3442 C   0  0  0  0  0  0  0  0  0  0  0  0
    5.7274   11.4433   27.0737 C   0  0  0  0  0  0  0  0  0  0  0  0
    6.0675   12.8166   27.0357 C   0  0  0  0  0  0  0  0  0  0  0  0
    7.1106   13.2446   26.2581 C   0  0  0  0  0  0  0  0  0  0  0  0
    7.8626   12.3212   25.4905 C   0  0  0  0  0  0  0  0  0  0  0  0
    8.9442   12.7309   24.6701 C   0  0  0  0  0  0  0  0  0  0  0  0
   12.1474   13.3827   21.8749 C   0  0  0  0  0  0  0  0  0  0  0  0
   13.2492   12.9011   21.9640 O   0  0  0  0  0  0  0  0  0  0  0  0
   11.7411   14.1546   20.7257 N   0  0  0  0  0  0  0  0  0  0  0  0
   12.6497   13.9734   19.5253 C   0  0  0  0  0  0  0  0  0  0  0  0
   12.1225   14.8170   18.3622 C   0  0  0  0  0  0  0  0  0  0  0  0
   10.7495   15.4398   18.6162 C   0  0  0  0  0  0  0  0  0  0  0  0
   10.5624   16.2039   20.0060 C   0  0  1  0  0  0  0  0  0  0  0  0
    9.2536   16.0758   20.4838 C   0  0  0  0  0  0  0  0  0  0  0  0
    8.0525   17.2008   19.9863 S   0  0  0  0  0  6  0  0  0  0  0  0
    8.4407   18.7923   20.3522 N   0  0  0  0  0  0  0  0  0  0  0  0
    6.9936   16.8063   20.8906 O   0  0  0  0  0  0  0  0  0  0  0  0
    7.9908   17.2061   18.5284 O   0  0  0  0  0  0  0  0  0  0  0  0
   11.6546   15.6716   20.9797 C   0  0  0  0  0  0  0  0  0  0  0  0
  2  1  1  1
  2  3  1  0
  3  4  1  0
  4  5  2  0
  5  6  1  0
  6  7  2  0
  7  8  1  0
  8  9  2  0
  9 10  1  0
 10 11  2  0
 11 12  1  0
 12 13  2  0
  2 14  1  0
 14 15  2  0
 14 16  1  0
 16 17  1  0
 17 18  1  0
 18 19  1  0
 19 20  1  0
 20 21  1  1
 21 22  1  0
 22 23  1  0
 22 24  2  0
 22 25  2  0
 20 26  1  0
 13  4  1  0
 26 16  1  0
 12  7  1  0
M  END
>  <cnnaffinity>  (66) 
-6.00663

>  <cnnaffinityIC50>  (66) 
984.8497976171691 nanomolar

>  <smiles>  (66) 
C[C@H](OC1=CN=C2C=CC=CC2=C1)C(=O)N1CCCC(CS(N)(=O)=O)C1

>  <origin>  (66) 
x1097-x0922.sdf

>  <ref_pdb>  (66) 
x0310

>  <butcher #BAD>  (66) 
10

>  <butcher #GOOD>  (66) 
16

>  <butcher #protein clash>  (66) 
7

>  <butcher #solvent space>  (66) 
3

>  <butcher #pocket>  (66) 
16

>  <butcher #P1>  (66) 
11

>  <butcher #P2>  (66) 
4

>  <butcher #P1'>  (66) 
1

>  <butcher #P2'>  (66) 
0

>  <butcher #P3>  (66) 
0

>  <butcher #P4>  (66) 
0

>  <butcher #P5>  (66) 
0

>  <butcher #P6>  (66) 
0

>  <ref_mols>  (66) 
A71x0922a

$$$$
Z3715991847
     RDKit          3D

 26 29  0  0  0  0  0  0  0  0999 V2000
    8.1390   17.7305   16.4554 C   0  0  0  0  0  0  0  0  0  0  0  0
    8.9786   16.7719   17.2296 C   0  0  0  0  0  0  0  0  0  0  0  0
    8.4630   15.6876   17.6374 N   0  0  0  0  0  0  0  0  0  0  0  0
    9.3565   14.9801   18.4066 O   0  0  0  0  0  0  0  0  0  0  0  0
   10.5388   15.7732   18.6855 C   0  0  0  0  0  0  0  0  0  0  0  0
   10.3910   16.2860   20.1286 C   0  0  0  0  0  0  0  0  0  0  0  0
   11.4836   15.8254   21.0833 C   0  0  0  0  0  0  0  0  0  0  0  0
   11.7847   14.4226   20.8295 N   0  0  0  0  0  0  0  0  0  0  0  0
   12.1076   13.5586   21.8538 C   0  0  0  0  0  0  0  0  0  0  0  0
   13.0643   12.8180   21.8005 O   0  0  0  0  0  0  0  0  0  0  0  0
   11.2229   13.5494   23.0994 C   0  0  2  0  0  0  0  0  0  0  0  0
   12.0392   13.9179   24.3351 C   0  0  0  0  0  0  0  0  0  0  0  0
   10.7556   12.2020   23.1773 O   0  0  0  0  0  0  0  0  0  0  0  0
    9.6969   11.9375   23.9791 C   0  0  0  0  0  0  0  0  0  0  0  0
    9.3231   10.5631   24.0648 C   0  0  0  0  0  0  0  0  0  0  0  0
    8.3258   10.1170   24.7778 N   0  0  0  0  0  0  0  0  0  0  0  0
    7.5984   11.0253   25.4987 C   0  0  0  0  0  0  0  0  0  0  0  0
    6.5147   10.5637   26.2874 C   0  0  0  0  0  0  0  0  0  0  0  0
    5.7775   11.4404   27.0390 C   0  0  0  0  0  0  0  0  0  0  0  0
    6.0830   12.8235   27.0331 C   0  0  0  0  0  0  0  0  0  0  0  0
    7.1180   13.2931   26.2691 C   0  0  0  0  0  0  0  0  0  0  0  0
    7.8927   12.4069   25.4829 C   0  0  0  0  0  0  0  0  0  0  0  0
    8.9697   12.8605   24.6815 C   0  0  0  0  0  0  0  0  0  0  0  0
   12.4901   14.2256   19.5708 C   0  0  0  0  0  0  0  0  0  0  0  0
   11.7652   14.8886   18.3875 C   0  0  0  0  0  0  0  0  0  0  0  0
   10.4118   16.9076   17.6444 C   0  0  0  0  0  0  0  0  0  0  0  0
  1  2  1  0
  2  3  2  0
  3  4  1  0
  4  5  1  0
  5  6  1  0
  6  7  1  0
  7  8  1  0
  8  9  1  0
  9 10  2  0
  9 11  1  0
 11 12  1  1
 11 13  1  0
 13 14  1  0
 14 15  2  0
 15 16  1  0
 16 17  2  0
 17 18  1  0
 18 19  2  0
 19 20  1  0
 20 21  2  0
 21 22  1  0
 22 23  2  0
  8 24  1  0
 24 25  1  0
  5 26  1  0
 26  2  1  0
 25  5  1  0
 23 14  1  0
 22 17  1  0
M  END
>  <cnnaffinity>  (67) 
-6.00069

>  <cnnaffinityIC50>  (67) 
998.4124777345353 nanomolar

>  <smiles>  (67) 
CC1=NOC2(CCN(C(=O)[C@H](C)OC3=CN=C4C=CC=CC4=C3)CC2)C1

>  <origin>  (67) 
x1097-x0922.sdf

>  <ref_pdb>  (67) 
x0310

>  <butcher #BAD>  (67) 
11

>  <butcher #GOOD>  (67) 
15

>  <butcher #protein clash>  (67) 
8

>  <butcher #solvent space>  (67) 
3

>  <butcher #pocket>  (67) 
15

>  <butcher #P1>  (67) 
11

>  <butcher #P2>  (67) 
3

>  <butcher #P1'>  (67) 
1

>  <butcher #P2'>  (67) 
0

>  <butcher #P3>  (67) 
0

>  <butcher #P4>  (67) 
0

>  <butcher #P5>  (67) 
0

>  <butcher #P6>  (67) 
0

>  <ref_mols>  (67) 
A71x0922a

$$$$
Z5346191781
     RDKit          3D

 26 29  0  0  0  0  0  0  0  0999 V2000
   12.3616   13.8887   24.7949 C   0  0  0  0  0  0  0  0  0  0  0  0
   11.5032   13.4543   23.6327 C   0  0  2  0  0  0  0  0  0  0  0  0
   11.0175   12.1147   23.6941 O   0  0  0  0  0  0  0  0  0  0  0  0
    9.8352   11.8731   24.3120 C   0  0  0  0  0  0  0  0  0  0  0  0
    9.4192   10.5078   24.3353 C   0  0  0  0  0  0  0  0  0  0  0  0
    8.3359   10.0799   24.9242 N   0  0  0  0  0  0  0  0  0  0  0  0
    7.5602   10.9973   25.5819 C   0  0  0  0  0  0  0  0  0  0  0  0
    6.4036   10.5525   26.2742 C   0  0  0  0  0  0  0  0  0  0  0  0
    5.6305   11.4390   26.9766 C   0  0  0  0  0  0  0  0  0  0  0  0
    5.9622   12.8138   27.0102 C   0  0  0  0  0  0  0  0  0  0  0  0
    7.0624   13.2681   26.3318 C   0  0  0  0  0  0  0  0  0  0  0  0
    7.8831   12.3727   25.6042 C   0  0  0  0  0  0  0  0  0  0  0  0
    9.0422   12.8091   24.9140 C   0  0  0  0  0  0  0  0  0  0  0  0
   12.3640   13.4707   22.3873 C   0  0  0  0  0  0  0  0  0  0  0  0
   13.4811   13.0014   22.4166 O   0  0  0  0  0  0  0  0  0  0  0  0
   11.8828   14.1193   21.2581 N   0  0  0  0  0  0  0  0  0  0  0  0
   10.5425   14.1482   20.9098 C   0  0  0  0  0  0  0  0  0  0  0  0
    9.6630   13.6077   21.7462 N   0  0  0  0  0  0  0  0  0  0  0  0
    8.3806   13.6689   21.4329 C   0  0  0  0  0  0  0  0  0  0  0  0
    7.9353   14.2163   20.2499 C   0  0  0  0  0  0  0  0  0  0  0  0
    8.8568   14.7679   19.3609 C   0  0  0  0  0  0  0  0  0  0  0  0
   10.1862   14.7358   19.6869 C   0  0  0  0  0  0  0  0  0  0  0  0
   11.1032   15.2884   18.8454 O   0  0  0  0  0  0  0  0  0  0  0  0
   12.4250   14.8023   19.0406 C   0  0  0  0  0  0  0  0  0  0  0  0
   12.8222   14.9385   20.4994 C   0  0  1  0  0  0  0  0  0  0  0  0
   12.8557   16.3614   21.0570 C   0  0  0  0  0  0  0  0  0  0  0  0
  2  1  1  1
  2  3  1  0
  3  4  1  0
  4  5  2  0
  5  6  1  0
  6  7  2  0
  7  8  1  0
  8  9  2  0
  9 10  1  0
 10 11  2  0
 11 12  1  0
 12 13  2  0
  2 14  1  0
 14 15  2  0
 14 16  1  0
 16 17  1  0
 17 18  2  0
 18 19  1  0
 19 20  2  0
 20 21  1  0
 21 22  2  0
 22 23  1  0
 23 24  1  0
 24 25  1  0
 25 26  1  1
 13  4  1  0
 25 16  1  0
 12  7  1  0
 22 17  1  0
M  END
>  <cnnaffinity>  (68) 
-5.95412

>  <cnnaffinityIC50>  (68) 
1111.4245868882422 nanomolar

>  <smiles>  (68) 
C[C@H](OC1=CN=C2C=CC=CC2=C1)C(=O)N1C2=NC=CC=C2OC[C@H]1C

>  <origin>  (68) 
x1097-x0922.sdf

>  <ref_pdb>  (68) 
x0310

>  <butcher #BAD>  (68) 
9

>  <butcher #GOOD>  (68) 
17

>  <butcher #protein clash>  (68) 
5

>  <butcher #solvent space>  (68) 
4

>  <butcher #pocket>  (68) 
17

>  <butcher #P1>  (68) 
13

>  <butcher #P2>  (68) 
3

>  <butcher #P1'>  (68) 
1

>  <butcher #P2'>  (68) 
0

>  <butcher #P3>  (68) 
0

>  <butcher #P4>  (68) 
0

>  <butcher #P5>  (68) 
0

>  <butcher #P6>  (68) 
0

>  <ref_mols>  (68) 
A71x0922a

$$$$
Z4449813055
     RDKit          3D

 26 29  0  0  0  0  0  0  0  0999 V2000
   12.7214   15.0082   18.8781 C   0  0  0  0  0  0  0  0  0  0  0  0
   12.8755   14.9986   20.3895 C   0  0  1  0  0  0  0  0  0  0  0  0
   12.9677   16.2551   21.2355 C   0  0  0  0  0  0  0  0  0  0  0  0
   13.1647   16.0308   22.5336 N   0  0  0  0  0  0  0  0  0  0  0  0
   12.5100   17.0465   23.0509 N   0  0  0  0  0  0  0  0  0  0  0  0
   12.1217   17.9543   22.1987 N   0  0  0  0  0  0  0  0  0  0  0  0
   12.4002   17.4676   21.0245 N   0  0  0  0  0  0  0  0  0  0  0  0
   11.7373   14.2847   21.0029 N   0  0  0  0  0  0  0  0  0  0  0  0
   12.1090   13.5507   22.1091 C   0  0  0  0  0  0  0  0  0  0  0  0
   13.1740   12.9608   22.1588 O   0  0  0  0  0  0  0  0  0  0  0  0
   11.1812   13.5061   23.3090 C   0  0  2  0  0  0  0  0  0  0  0  0
   11.9992   13.7546   24.5593 C   0  0  0  0  0  0  0  0  0  0  0  0
   10.6195   12.1980   23.2501 O   0  0  0  0  0  0  0  0  0  0  0  0
    9.5665   11.9126   24.0553 C   0  0  0  0  0  0  0  0  0  0  0  0
    9.2021   10.5370   24.1268 C   0  0  0  0  0  0  0  0  0  0  0  0
    8.2069   10.0846   24.8381 N   0  0  0  0  0  0  0  0  0  0  0  0
    7.4774   10.9866   25.5649 C   0  0  0  0  0  0  0  0  0  0  0  0
    6.4020   10.5092   26.3556 C   0  0  0  0  0  0  0  0  0  0  0  0
    5.6620   11.3744   27.1170 C   0  0  0  0  0  0  0  0  0  0  0  0
    5.9543   12.7592   27.1195 C   0  0  0  0  0  0  0  0  0  0  0  0
    6.9777   13.2453   26.3502 C   0  0  0  0  0  0  0  0  0  0  0  0
    7.7596   12.3706   25.5559 C   0  0  0  0  0  0  0  0  0  0  0  0
    8.8336   12.8312   24.7565 C   0  0  0  0  0  0  0  0  0  0  0  0
   10.4846   14.9920   20.9151 C   0  0  0  0  0  0  0  0  0  0  0  0
    9.7114   14.7006   19.6768 C   0  0  0  0  0  0  0  0  0  0  0  0
    9.2328   14.2066   21.0125 C   0  0  0  0  0  0  0  0  0  0  0  0
  2  1  1  6
  2  3  1  0
  3  4  2  0
  4  5  1  0
  5  6  1  0
  6  7  2  0
  2  8  1  0
  8  9  1  0
  9 10  2  0
  9 11  1  0
 11 12  1  1
 11 13  1  0
 13 14  1  0
 14 15  2  0
 15 16  1  0
 16 17  2  0
 17 18  1  0
 18 19  2  0
 19 20  1  0
 20 21  2  0
 21 22  1  0
 22 23  2  0
  8 24  1  0
 24 25  1  0
 25 26  1  0
  7  3  1  0
 23 14  1  0
 26 24  1  0
 22 17  1  0
M  END
>  <cnnaffinity>  (69) 
-5.9391

>  <cnnaffinityIC50>  (69) 
1150.5354378671673 nanomolar

>  <smiles>  (69) 
CC(C1=NNN=N1)N(C(=O)[C@H](C)OC1=CN=C2C=CC=CC2=C1)C1CC1

>  <origin>  (69) 
x1097-x0922.sdf

>  <ref_pdb>  (69) 
x0310

>  <butcher #BAD>  (69) 
9

>  <butcher #GOOD>  (69) 
17

>  <butcher #protein clash>  (69) 
6

>  <butcher #solvent space>  (69) 
3

>  <butcher #pocket>  (69) 
17

>  <butcher #P1>  (69) 
11

>  <butcher #P2>  (69) 
4

>  <butcher #P1'>  (69) 
2

>  <butcher #P2'>  (69) 
0

>  <butcher #P3>  (69) 
0

>  <butcher #P4>  (69) 
0

>  <butcher #P5>  (69) 
0

>  <butcher #P6>  (69) 
0

>  <ref_mols>  (69) 
A71x0922a

$$$$
Z2054438294
     RDKit          3D

 26 28  0  0  0  0  0  0  0  0999 V2000
   11.9918   14.1050   24.5486 C   0  0  0  0  0  0  0  0  0  0  0  0
   11.2271   13.5703   23.3422 C   0  0  2  0  0  0  0  0  0  0  0  0
   10.8540   12.2105   23.5129 O   0  0  0  0  0  0  0  0  0  0  0  0
    9.7202   11.9600   24.2161 C   0  0  0  0  0  0  0  0  0  0  0  0
    9.3324   10.5902   24.2637 C   0  0  0  0  0  0  0  0  0  0  0  0
    8.2877   10.1429   24.9041 N   0  0  0  0  0  0  0  0  0  0  0  0
    7.5151   11.0508   25.5766 C   0  0  0  0  0  0  0  0  0  0  0  0
    6.3838   10.5819   26.2914 C   0  0  0  0  0  0  0  0  0  0  0  0
    5.5833   11.4584   26.9769 C   0  0  0  0  0  0  0  0  0  0  0  0
    5.8770   12.8438   26.9855 C   0  0  0  0  0  0  0  0  0  0  0  0
    6.9673   13.3170   26.3036 C   0  0  0  0  0  0  0  0  0  0  0  0
    7.8082   12.4322   25.5817 C   0  0  0  0  0  0  0  0  0  0  0  0
    8.9433   12.8847   24.8613 C   0  0  0  0  0  0  0  0  0  0  0  0
   12.1273   13.5847   22.1039 C   0  0  0  0  0  0  0  0  0  0  0  0
   13.1311   12.9003   22.0741 O   0  0  0  0  0  0  0  0  0  0  0  0
   11.7828   14.4036   21.0578 N   0  0  0  0  0  0  0  0  0  0  0  0
   12.5924   14.1896   19.8670 C   0  0  0  0  0  0  0  0  0  0  0  0
   12.2517   14.9081   18.5677 C   0  0  0  0  0  0  0  0  0  0  0  0
   10.8787   15.4016   18.1219 C   0  0  0  0  0  0  0  0  0  0  0  0
    9.9801   16.2502   19.0187 C   0  0  1  0  0  0  0  0  0  0  0  0
    8.6624   16.5808   18.3156 C   0  0  0  0  0  0  0  0  0  0  0  0
    8.7256   17.7682   17.3877 C   0  0  0  0  0  0  0  0  0  0  0  0
    7.8675   17.7306   16.3296 N   0  0  0  0  0  0  0  0  0  0  0  0
    9.4456   18.7228   17.6121 O   0  0  0  0  0  0  0  0  0  0  0  0
    9.7449   15.6273   20.3880 C   0  0  0  0  0  0  0  0  0  0  0  0
   11.0127   15.6218   21.2388 C   0  0  0  0  0  0  0  0  0  0  0  0
  2  1  1  1
  2  3  1  0
  3  4  1  0
  4  5  2  0
  5  6  1  0
  6  7  2  0
  7  8  1  0
  8  9  2  0
  9 10  1  0
 10 11  2  0
 11 12  1  0
 12 13  2  0
  2 14  1  0
 14 15  2  0
 14 16  1  0
 16 17  1  0
 17 18  1  0
 18 19  1  0
 19 20  1  0
 20 21  1  6
 21 22  1  0
 22 23  1  0
 22 24  2  0
 20 25  1  0
 25 26  1  0
 13  4  1  0
 26 16  1  0
 12  7  1  0
M  END
>  <cnnaffinity>  (70) 
-5.93772

>  <cnnaffinityIC50>  (70) 
1154.197156397432 nanomolar

>  <smiles>  (70) 
C[C@H](OC1=CN=C2C=CC=CC2=C1)C(=O)N1CCCC(CC(N)=O)CC1

>  <origin>  (70) 
x1097-x0922.sdf

>  <ref_pdb>  (70) 
x0310

>  <butcher #BAD>  (70) 
9

>  <butcher #GOOD>  (70) 
17

>  <butcher #protein clash>  (70) 
6

>  <butcher #solvent space>  (70) 
3

>  <butcher #pocket>  (70) 
17

>  <butcher #P1>  (70) 
11

>  <butcher #P2>  (70) 
5

>  <butcher #P1'>  (70) 
1

>  <butcher #P2'>  (70) 
0

>  <butcher #P3>  (70) 
0

>  <butcher #P4>  (70) 
0

>  <butcher #P5>  (70) 
0

>  <butcher #P6>  (70) 
0

>  <ref_mols>  (70) 
A71x0922a

$$$$
Z4188189473
     RDKit          3D

 24 25  0  0  0  0  0  0  0  0999 V2000
    9.6131   17.3105   16.8828 C   0  0  0  0  0  0  0  0  0  0  0  0
   10.0556   17.8182   17.5050 S   0  0  0  0  0  0  0  0  0  0  0  0
    8.6136   18.4000   18.8739 C   0  0  0  0  0  0  0  0  0  0  0  0
    8.2887   17.0132   19.2910 C   0  0  0  0  0  0  0  0  0  0  0  0
    9.4033   16.1360   19.8900 C   0  0  0  0  0  0  0  0  0  0  0  0
    8.6853   14.7533   20.7537 S   0  0  0  0  0  6  0  0  0  0  0  0
    8.1491   13.9017   19.7225 O   0  0  0  0  0  0  0  0  0  0  0  0
    7.8274   15.1251   21.8616 O   0  0  0  0  0  0  0  0  0  0  0  0
   10.0455   13.9447   21.3060 N   0  0  0  0  0  0  0  0  0  0  0  0
   10.8163   14.4186   22.3492 C   0  0  0  0  0  0  0  0  0  0  0  0
   10.9272   15.5907   22.6370 O   0  0  0  0  0  0  0  0  0  0  0  0
   11.5960   13.3419   23.0962 C   0  0  2  0  0  0  0  0  0  0  0  0
   12.9711   13.2023   22.4681 C   0  0  0  0  0  0  0  0  0  0  0  0
   10.9500   12.0729   23.0483 O   0  0  0  0  0  0  0  0  0  0  0  0
    9.8518   11.8787   23.8377 C   0  0  0  0  0  0  0  0  0  0  0  0
    9.4230   10.5241   23.9380 C   0  0  0  0  0  0  0  0  0  0  0  0
    8.4145   10.1239   24.6592 N   0  0  0  0  0  0  0  0  0  0  0  0
    7.7311   11.0704   25.3739 C   0  0  0  0  0  0  0  0  0  0  0  0
    6.6621   10.6423   26.2016 C   0  0  0  0  0  0  0  0  0  0  0  0
    5.9611   11.5464   26.9531 C   0  0  0  0  0  0  0  0  0  0  0  0
    6.2768   12.9260   26.8936 C   0  0  0  0  0  0  0  0  0  0  0  0
    7.2966   13.3653   26.0866 C   0  0  0  0  0  0  0  0  0  0  0  0
    8.0546   12.4454   25.3169 C   0  0  0  0  0  0  0  0  0  0  0  0
    9.1506   12.8489   24.5046 C   0  0  0  0  0  0  0  0  0  0  0  0
  1  2  1  0
  2  3  1  0
  3  4  1  0
  4  5  1  0
  5  6  1  0
  6  7  2  0
  6  8  2  0
  6  9  1  0
  9 10  1  0
 10 11  2  0
 10 12  1  0
 12 13  1  6
 12 14  1  0
 14 15  1  0
 15 16  2  0
 16 17  1  0
 17 18  2  0
 18 19  1  0
 19 20  2  0
 20 21  1  0
 21 22  2  0
 22 23  1  0
 23 24  2  0
 24 15  1  0
 23 18  1  0
M  END
>  <cnnaffinity>  (71) 
-5.92069

>  <cnnaffinityIC50>  (71) 
1200.3558130584815 nanomolar

>  <smiles>  (71) 
CSCCCS(=O)(=O)NC(=O)[C@H](C)OC1=CN=C2C=CC=CC2=C1

>  <origin>  (71) 
x1097-x0922.sdf

>  <ref_pdb>  (71) 
x0310

>  <butcher #BAD>  (71) 
4

>  <butcher #GOOD>  (71) 
20

>  <butcher #protein clash>  (71) 
4

>  <butcher #solvent space>  (71) 
0

>  <butcher #pocket>  (71) 
20

>  <butcher #P1>  (71) 
14

>  <butcher #P2>  (71) 
6

>  <butcher #P1'>  (71) 
0

>  <butcher #P2'>  (71) 
0

>  <butcher #P3>  (71) 
0

>  <butcher #P4>  (71) 
0

>  <butcher #P5>  (71) 
0

>  <butcher #P6>  (71) 
0

>  <ref_mols>  (71) 
A71x0922a

$$$$
PV-006863230075
     RDKit          3D

 26 28  0  0  0  0  0  0  0  0999 V2000
   12.0531   13.8980   24.1294 C   0  0  0  0  0  0  0  0  0  0  0  0
   11.1900   13.5198   22.9345 C   0  0  2  0  0  0  0  0  0  0  0  0
   10.7139   12.1825   23.0710 O   0  0  0  0  0  0  0  0  0  0  0  0
    9.6812   11.9364   23.9166 C   0  0  0  0  0  0  0  0  0  0  0  0
    9.3114   10.5618   24.0213 C   0  0  0  0  0  0  0  0  0  0  0  0
    8.3311   10.1196   24.7575 N   0  0  0  0  0  0  0  0  0  0  0  0
    7.6175   11.0324   25.4857 C   0  0  0  0  0  0  0  0  0  0  0  0
    6.5448   10.5636   26.2838 C   0  0  0  0  0  0  0  0  0  0  0  0
    5.8080   11.4380   27.0360 C   0  0  0  0  0  0  0  0  0  0  0  0
    6.1106   12.8204   27.0278 C   0  0  0  0  0  0  0  0  0  0  0  0
    7.1393   13.2957   26.2585 C   0  0  0  0  0  0  0  0  0  0  0  0
    7.9124   12.4138   25.4632 C   0  0  0  0  0  0  0  0  0  0  0  0
    8.9776   12.8625   24.6384 C   0  0  0  0  0  0  0  0  0  0  0  0
   12.0485   13.4898   21.6713 C   0  0  0  0  0  0  0  0  0  0  0  0
   12.9167   12.6605   21.5677 O   0  0  0  0  0  0  0  0  0  0  0  0
   11.8296   14.4366   20.6945 N   0  0  0  0  0  0  0  0  0  0  0  0
   11.7065   15.8252   21.0738 C   0  0  0  0  0  0  0  0  0  0  0  0
   10.5349   16.4387   20.3356 C   0  0  0  0  0  0  0  0  0  0  0  0
   10.1903   15.7679   18.6967 S   0  0  0  0  0  6  0  0  0  0  0  0
    9.0388   14.8757   18.8202 O   0  0  0  0  0  0  0  0  0  0  0  0
   10.0089   17.1447   17.7988 N   0  0  0  0  0  0  0  0  0  0  0  0
    8.9635   17.9271   18.1175 C   0  0  0  0  0  0  0  0  0  0  0  0
    8.0280   17.5506   19.1227 N   0  0  0  0  0  0  0  0  0  0  0  0
    8.8086   19.0243   17.5848 O   0  0  0  0  0  0  0  0  0  0  0  0
   11.7422   14.9460   18.2346 C   0  0  0  0  0  0  0  0  0  0  0  0
   12.4702   14.2294   19.4018 C   0  0  0  0  0  0  0  0  0  0  0  0
  2  1  1  1
  2  3  1  0
  3  4  1  0
  4  5  2  0
  5  6  1  0
  6  7  2  0
  7  8  1  0
  8  9  2  0
  9 10  1  0
 10 11  2  0
 11 12  1  0
 12 13  2  0
  2 14  1  0
 14 15  2  0
 14 16  1  0
 16 17  1  0
 17 18  1  0
 18 19  1  0
 19 20  2  0
 19 21  2  0
 21 22  1  0
 22 23  1  0
 22 24  2  0
 19 25  1  0
 25 26  1  0
 13  4  1  0
 26 16  1  0
 12  7  1  0
M  END
>  <cnnaffinity>  (72) 
-5.91715

>  <cnnaffinityIC50>  (72) 
1210.1800799675455 nanomolar

>  <smiles>  (72) 
C[C@H](OC1=CN=C2C=CC=CC2=C1)C(=O)N1CCS(=O)(=NC(N)=O)CC1

>  <origin>  (72) 
x1097-x0922.sdf

>  <ref_pdb>  (72) 
x0310

>  <butcher #BAD>  (72) 
9

>  <butcher #GOOD>  (72) 
17

>  <butcher #protein clash>  (72) 
6

>  <butcher #solvent space>  (72) 
3

>  <butcher #pocket>  (72) 
17

>  <butcher #P1>  (72) 
11

>  <butcher #P2>  (72) 
5

>  <butcher #P1'>  (72) 
1

>  <butcher #P2'>  (72) 
0

>  <butcher #P3>  (72) 
0

>  <butcher #P4>  (72) 
0

>  <butcher #P5>  (72) 
0

>  <butcher #P6>  (72) 
0

>  <ref_mols>  (72) 
A71x0922a

$$$$
Z1962495039
     RDKit          3D

 25 27  0  0  0  0  0  0  0  0999 V2000
   13.0865   13.0439   22.4121 C   0  0  0  0  0  0  0  0  0  0  0  0
   11.7751   12.9845   23.1909 C   0  0  2  0  0  0  0  0  0  0  0  0
   11.2377   11.6362   23.1681 O   0  0  0  0  0  0  0  0  0  0  0  0
   10.0771   11.4289   23.8970 C   0  0  0  0  0  0  0  0  0  0  0  0
    9.5611   10.1253   24.0600 C   0  0  0  0  0  0  0  0  0  0  0  0
    8.4581    9.8389   24.7859 N   0  0  0  0  0  0  0  0  0  0  0  0
    7.8140   10.8575   25.3884 C   0  0  0  0  0  0  0  0  0  0  0  0
    6.6662   10.5886   26.1382 C   0  0  0  0  0  0  0  0  0  0  0  0
    5.9616   11.6172   26.7805 C   0  0  0  0  0  0  0  0  0  0  0  0
    6.4148   12.9366   26.6800 C   0  0  0  0  0  0  0  0  0  0  0  0
    7.5663   13.2265   25.9405 C   0  0  0  0  0  0  0  0  0  0  0  0
    8.2603   12.1946   25.2904 C   0  0  0  0  0  0  0  0  0  0  0  0
    9.4032   12.4722   24.5456 C   0  0  0  0  0  0  0  0  0  0  0  0
   10.7933   14.0129   22.6016 C   0  0  0  0  0  0  0  0  0  0  0  0
   10.4636   14.9794   23.2694 O   0  0  0  0  0  0  0  0  0  0  0  0
   10.2215   13.8753   21.3751 N   0  0  0  0  0  0  0  0  0  0  0  0
    8.7064   14.5738   21.2861 S   0  0  0  0  0  6  0  0  0  0  0  0
    7.8333   13.5671   20.6969 O   0  0  0  0  0  0  0  0  0  0  0  0
    8.2131   14.9201   22.6216 O   0  0  0  0  0  0  0  0  0  0  0  0
    8.9459   15.9430   20.1616 C   0  0  0  0  0  0  0  0  0  0  0  0
    9.9292   15.9689   19.2125 C   0  0  0  0  0  0  0  0  0  0  0  0
   11.3040   14.6489   18.9882 Br  0  0  0  0  0  0  0  0  0  0  0  0
    9.7880   17.1073   18.3407 C   0  0  0  0  0  0  0  0  0  0  0  0
    8.7166   17.9003   18.6858 C   0  0  0  0  0  0  0  0  0  0  0  0
    7.8516   17.3055   20.1001 S   0  0  0  0  0  0  0  0  0  0  0  0
  2  1  1  6
  2  3  1  0
  3  4  1  0
  4  5  2  0
  5  6  1  0
  6  7  2  0
  7  8  1  0
  8  9  2  0
  9 10  1  0
 10 11  2  0
 11 12  1  0
 12 13  2  0
  2 14  1  0
 14 15  2  0
 14 16  1  0
 16 17  1  0
 17 18  2  0
 17 19  2  0
 17 20  1  0
 20 21  2  0
 21 22  1  0
 21 23  1  0
 23 24  2  0
 24 25  1  0
 13  4  1  0
 25 20  1  0
 12  7  1  0
M  END
>  <cnnaffinity>  (73) 
-5.91012

>  <cnnaffinityIC50>  (73) 
1229.92888194808 nanomolar

>  <smiles>  (73) 
C[C@H](OC1=CN=C2C=CC=CC2=C1)C(=O)NS(=O)(=O)C1=C(Br)C=CS1

>  <origin>  (73) 
x1097-x0922.sdf

>  <ref_pdb>  (73) 
x0310

>  <butcher #BAD>  (73) 
3

>  <butcher #GOOD>  (73) 
22

>  <butcher #protein clash>  (73) 
3

>  <butcher #solvent space>  (73) 
0

>  <butcher #pocket>  (73) 
22

>  <butcher #P1>  (73) 
16

>  <butcher #P2>  (73) 
6

>  <butcher #P1'>  (73) 
0

>  <butcher #P2'>  (73) 
0

>  <butcher #P3>  (73) 
0

>  <butcher #P4>  (73) 
0

>  <butcher #P5>  (73) 
0

>  <butcher #P6>  (73) 
0

>  <ref_mols>  (73) 
A71x0922a

$$$$
Z1939735778
     RDKit          3D

 26 28  0  0  0  0  0  0  0  0999 V2000
    6.8297   19.1944   18.9105 C   0  0  0  0  0  0  0  0  0  0  0  0
    8.0829   18.6034   18.2913 C   0  0  0  0  0  0  0  0  0  0  0  0
    8.9528   19.2685   17.7536 O   0  0  0  0  0  0  0  0  0  0  0  0
    8.1558   17.2470   18.3866 N   0  0  0  0  0  0  0  0  0  0  0  0
    9.2317   16.4641   17.8209 C   0  0  0  0  0  0  0  0  0  0  0  0
    9.9849   15.6136   18.8589 C   0  0  0  0  0  0  0  0  0  0  0  0
   11.3430   15.1526   18.3119 C   0  0  0  0  0  0  0  0  0  0  0  0
   12.2196   14.4499   19.3709 C   0  0  0  0  0  0  0  0  0  0  0  0
   11.5969   14.5360   20.6875 N   0  0  0  0  0  0  0  0  0  0  0  0
   11.8721   13.5512   21.5948 C   0  0  0  0  0  0  0  0  0  0  0  0
   12.7348   12.7206   21.4031 O   0  0  0  0  0  0  0  0  0  0  0  0
   11.0738   13.5656   22.8998 C   0  0  2  0  0  0  0  0  0  0  0  0
   11.9324   14.1170   24.0323 C   0  0  0  0  0  0  0  0  0  0  0  0
   10.7164   12.2123   23.1423 O   0  0  0  0  0  0  0  0  0  0  0  0
    9.6607   11.9729   23.9616 C   0  0  0  0  0  0  0  0  0  0  0  0
    9.2780   10.6021   24.0639 C   0  0  0  0  0  0  0  0  0  0  0  0
    8.2887   10.1676   24.7915 N   0  0  0  0  0  0  0  0  0  0  0  0
    7.5764   11.0868   25.5135 C   0  0  0  0  0  0  0  0  0  0  0  0
    6.5065   10.6196   26.3163 C   0  0  0  0  0  0  0  0  0  0  0  0
    5.7671   11.4963   27.0637 C   0  0  0  0  0  0  0  0  0  0  0  0
    6.0611   12.8802   27.0366 C   0  0  0  0  0  0  0  0  0  0  0  0
    7.0880   13.3539   26.2626 C   0  0  0  0  0  0  0  0  0  0  0  0
    7.8714   12.4675   25.4820 C   0  0  0  0  0  0  0  0  0  0  0  0
    8.9489   12.9086   24.6676 C   0  0  0  0  0  0  0  0  0  0  0  0
   11.2390   15.8853   21.0723 C   0  0  0  0  0  0  0  0  0  0  0  0
   10.1288   16.3951   20.1609 C   0  0  0  0  0  0  0  0  0  0  0  0
  1  2  1  0
  2  3  2  0
  2  4  1  0
  4  5  1  0
  5  6  1  0
  6  7  1  0
  7  8  1  0
  8  9  1  0
  9 10  1  0
 10 11  2  0
 10 12  1  0
 12 13  1  1
 12 14  1  0
 14 15  1  0
 15 16  2  0
 16 17  1  0
 17 18  2  0
 18 19  1  0
 19 20  2  0
 20 21  1  0
 21 22  2  0
 22 23  1  0
 23 24  2  0
  9 25  1  0
 25 26  1  0
 26  6  1  0
 24 15  1  0
 23 18  1  0
M  END
>  <cnnaffinity>  (74) 
-5.90331

>  <cnnaffinityIC50>  (74) 
1249.3669120335314 nanomolar

>  <smiles>  (74) 
CC(=O)NCC1CCN(C(=O)[C@H](C)OC2=CN=C3C=CC=CC3=C2)CC1

>  <origin>  (74) 
x1097-x0922.sdf

>  <ref_pdb>  (74) 
x0310

>  <butcher #BAD>  (74) 
9

>  <butcher #GOOD>  (74) 
17

>  <butcher #protein clash>  (74) 
6

>  <butcher #solvent space>  (74) 
3

>  <butcher #pocket>  (74) 
17

>  <butcher #P1>  (74) 
11

>  <butcher #P2>  (74) 
5

>  <butcher #P1'>  (74) 
1

>  <butcher #P2'>  (74) 
0

>  <butcher #P3>  (74) 
0

>  <butcher #P4>  (74) 
0

>  <butcher #P5>  (74) 
0

>  <butcher #P6>  (74) 
0

>  <ref_mols>  (74) 
A71x0922a

$$$$
PV-002389805553
     RDKit          3D

 26 29  0  0  0  0  0  0  0  0999 V2000
   12.7069   13.1170   22.2639 C   0  0  0  0  0  0  0  0  0  0  0  0
   11.3725   13.1742   22.9766 C   0  0  2  0  0  0  0  0  0  0  0  0
   10.8502   11.8476   23.0792 O   0  0  0  0  0  0  0  0  0  0  0  0
    9.7914   11.6589   23.9120 C   0  0  0  0  0  0  0  0  0  0  0  0
    9.3620   10.3055   24.0664 C   0  0  0  0  0  0  0  0  0  0  0  0
    8.3519    9.9392   24.8059 N   0  0  0  0  0  0  0  0  0  0  0  0
    7.6689   10.9103   25.4881 C   0  0  0  0  0  0  0  0  0  0  0  0
    6.5637   10.5356   26.2927 C   0  0  0  0  0  0  0  0  0  0  0  0
    5.8665   11.4789   27.0001 C   0  0  0  0  0  0  0  0  0  0  0  0
    6.2307   12.8451   26.9315 C   0  0  0  0  0  0  0  0  0  0  0  0
    7.2885   13.2312   26.1511 C   0  0  0  0  0  0  0  0  0  0  0  0
    8.0308   12.2728   25.4146 C   0  0  0  0  0  0  0  0  0  0  0  0
    9.1259   12.6422   24.5979 C   0  0  0  0  0  0  0  0  0  0  0  0
   10.3582   14.1015   22.3028 C   0  0  0  0  0  0  0  0  0  0  0  0
    9.9637   15.1012   22.8773 O   0  0  0  0  0  0  0  0  0  0  0  0
    9.8435   13.7416   21.1018 N   0  0  0  0  0  0  0  0  0  0  0  0
    8.7063   14.4825   20.5940 C   0  0  0  0  0  0  0  0  0  0  0  0
    9.0001   15.8099   19.9608 C   0  0  0  0  0  0  0  0  0  0  0  0
    8.2538   16.8545   20.1221 N   0  0  0  0  0  0  0  0  0  0  0  0
    8.7196   17.7559   19.2021 N   0  0  0  0  0  0  0  0  0  0  0  0
    9.6899   17.2464   18.3784 C   0  0  0  0  0  0  0  0  0  0  0  0
   10.2030   17.7384   17.3905 O   0  0  0  0  0  0  0  0  0  0  0  0
    9.9362   15.9946   18.9531 N   0  0  0  0  0  0  0  0  0  0  0  0
   10.4986   14.9413   18.1620 C   0  0  0  0  0  0  0  0  0  0  0  0
   11.8417   15.1185   17.5489 C   0  0  0  0  0  0  0  0  0  0  0  0
   11.6827   14.2006   18.7104 C   0  0  0  0  0  0  0  0  0  0  0  0
  2  1  1  6
  2  3  1  0
  3  4  1  0
  4  5  2  0
  5  6  1  0
  6  7  2  0
  7  8  1  0
  8  9  2  0
  9 10  1  0
 10 11  2  0
 11 12  1  0
 12 13  2  0
  2 14  1  0
 14 15  2  0
 14 16  1  0
 16 17  1  0
 17 18  1  0
 18 19  2  0
 19 20  1  0
 20 21  1  0
 21 22  2  0
 21 23  1  0
 23 24  1  0
 24 25  1  0
 25 26  1  0
 13  4  1  0
 23 18  1  0
 26 24  1  0
 12  7  1  0
M  END
>  <cnnaffinity>  (75) 
-5.89154

>  <cnnaffinityIC50>  (75) 
1283.6895328522203 nanomolar

>  <smiles>  (75) 
C[C@H](OC1=CN=C2C=CC=CC2=C1)C(=O)NCC1=NNC(=O)N1C1CC1

>  <origin>  (75) 
x1097-x0922.sdf

>  <ref_pdb>  (75) 
x0310

>  <butcher #BAD>  (75) 
7

>  <butcher #GOOD>  (75) 
19

>  <butcher #protein clash>  (75) 
5

>  <butcher #solvent space>  (75) 
2

>  <butcher #pocket>  (75) 
19

>  <butcher #P1>  (75) 
13

>  <butcher #P2>  (75) 
6

>  <butcher #P1'>  (75) 
0

>  <butcher #P2'>  (75) 
0

>  <butcher #P3>  (75) 
0

>  <butcher #P4>  (75) 
0

>  <butcher #P5>  (75) 
0

>  <butcher #P6>  (75) 
0

>  <ref_mols>  (75) 
A71x0922a

$$$$
Z5328188653
     RDKit          3D

 25 27  0  0  0  0  0  0  0  0999 V2000
   12.0012   14.0384   24.3828 C   0  0  0  0  0  0  0  0  0  0  0  0
   11.2159   13.6243   23.1424 C   0  0  2  0  0  0  0  0  0  0  0  0
   10.7716   12.2710   23.2301 O   0  0  0  0  0  0  0  0  0  0  0  0
    9.6956   11.9865   23.9989 C   0  0  0  0  0  0  0  0  0  0  0  0
    9.3269   10.6088   24.0653 C   0  0  0  0  0  0  0  0  0  0  0  0
    8.3242   10.1583   24.7682 N   0  0  0  0  0  0  0  0  0  0  0  0
    7.5877   11.0580   25.4903 C   0  0  0  0  0  0  0  0  0  0  0  0
    6.5071   10.5872   26.2802 C   0  0  0  0  0  0  0  0  0  0  0  0
    5.7709   11.4611   27.0373 C   0  0  0  0  0  0  0  0  0  0  0  0
    6.0689   12.8459   27.0365 C   0  0  0  0  0  0  0  0  0  0  0  0
    7.0979   13.3201   26.2683 C   0  0  0  0  0  0  0  0  0  0  0  0
    7.8749   12.4397   25.4796 C   0  0  0  0  0  0  0  0  0  0  0  0
    8.9512   12.9014   24.6876 C   0  0  0  0  0  0  0  0  0  0  0  0
   12.1353   13.6220   21.9280 C   0  0  0  0  0  0  0  0  0  0  0  0
   12.9984   12.7748   21.8265 O   0  0  0  0  0  0  0  0  0  0  0  0
   11.9547   14.5887   20.9726 N   0  0  0  0  0  0  0  0  0  0  0  0
   12.4860   14.3135   19.6512 C   0  0  0  0  0  0  0  0  0  0  0  0
   11.5747   14.8780   18.5495 C   0  0  0  0  0  0  0  0  0  0  0  0
   10.2811   15.5557   19.0785 C   0  0  0  0  0  0  0  0  0  0  0  0
    9.6999   16.4487   18.0481 C   0  0  0  0  0  0  0  0  0  0  0  0
    9.2606   17.2200   17.3054 N   0  0  0  0  0  0  0  0  0  0  0  0
    9.2339   14.5929   19.4894 C   0  0  0  0  0  0  0  0  0  0  0  0
    8.3773   13.9646   19.9447 N   0  0  0  0  0  0  0  0  0  0  0  0
   10.4917   16.4179   20.3516 C   0  0  0  0  0  0  0  0  0  0  0  0
   11.6625   15.9852   21.2195 C   0  0  0  0  0  0  0  0  0  0  0  0
  2  1  1  1
  2  3  1  0
  3  4  1  0
  4  5  2  0
  5  6  1  0
  6  7  2  0
  7  8  1  0
  8  9  2  0
  9 10  1  0
 10 11  2  0
 11 12  1  0
 12 13  2  0
  2 14  1  0
 14 15  2  0
 14 16  1  0
 16 17  1  0
 17 18  1  0
 18 19  1  0
 19 20  1  0
 20 21  3  0
 19 22  1  0
 22 23  3  0
 19 24  1  0
 24 25  1  0
 13  4  1  0
 25 16  1  0
 12  7  1  0
M  END
>  <cnnaffinity>  (76) 
-5.88866

>  <cnnaffinityIC50>  (76) 
1292.2305377759992 nanomolar

>  <smiles>  (76) 
C[C@H](OC1=CN=C2C=CC=CC2=C1)C(=O)N1CCC(C#N)(C#N)CC1

>  <origin>  (76) 
x1097-x0922.sdf

>  <ref_pdb>  (76) 
x0310

>  <butcher #BAD>  (76) 
8

>  <butcher #GOOD>  (76) 
17

>  <butcher #protein clash>  (76) 
5

>  <butcher #solvent space>  (76) 
3

>  <butcher #pocket>  (76) 
17

>  <butcher #P1>  (76) 
11

>  <butcher #P2>  (76) 
5

>  <butcher #P1'>  (76) 
1

>  <butcher #P2'>  (76) 
0

>  <butcher #P3>  (76) 
0

>  <butcher #P4>  (76) 
0

>  <butcher #P5>  (76) 
0

>  <butcher #P6>  (76) 
0

>  <ref_mols>  (76) 
A71x0922a

$$$$
PV-007132645701
     RDKit          3D

 26 29  0  0  0  0  0  0  0  0999 V2000
   12.0329   13.9624   24.3344 C   0  0  0  0  0  0  0  0  0  0  0  0
   11.1544   13.5195   23.1671 C   0  0  2  0  0  0  0  0  0  0  0  0
   10.7731   12.1566   23.2986 O   0  0  0  0  0  0  0  0  0  0  0  0
    9.6761   11.8954   24.0548 C   0  0  0  0  0  0  0  0  0  0  0  0
    9.2528   10.5336   24.0923 C   0  0  0  0  0  0  0  0  0  0  0  0
    8.2324   10.1044   24.7858 N   0  0  0  0  0  0  0  0  0  0  0  0
    7.5269   11.0152   25.5252 C   0  0  0  0  0  0  0  0  0  0  0  0
    6.4411   10.5638   26.3184 C   0  0  0  0  0  0  0  0  0  0  0  0
    5.7229   11.4486   27.0795 C   0  0  0  0  0  0  0  0  0  0  0  0
    6.0367   12.8294   27.0688 C   0  0  0  0  0  0  0  0  0  0  0  0
    7.0762   13.2860   26.3040 C   0  0  0  0  0  0  0  0  0  0  0  0
    7.8503   12.3889   25.5299 C   0  0  0  0  0  0  0  0  0  0  0  0
    8.9593   12.8228   24.7638 C   0  0  0  0  0  0  0  0  0  0  0  0
   11.9369   13.6162   21.8616 C   0  0  0  0  0  0  0  0  0  0  0  0
   12.8381   12.8260   21.6530 O   0  0  0  0  0  0  0  0  0  0  0  0
   11.6506   14.6414   20.9919 N   0  0  0  0  0  0  0  0  0  0  0  0
   12.5247   14.7675   19.8307 C   0  0  0  0  0  0  0  0  0  0  0  0
   11.7778   14.5873   18.5093 C   0  0  0  0  0  0  0  0  0  0  0  0
   10.8323   15.7114   18.2673 C   0  0  0  0  0  0  0  0  0  0  0  0
    9.7191   16.1389   18.9665 C   0  0  0  0  0  0  0  0  0  0  0  0
    9.4125   15.6565   20.3544 C   0  0  0  0  0  0  0  0  0  0  0  0
   10.6962   15.7238   21.2191 C   0  0  0  0  0  0  0  0  0  0  0  0
    9.3376   17.3184   18.2745 C   0  0  0  0  0  0  0  0  0  0  0  0
    8.2736   18.1280   18.4992 O   0  0  0  0  0  0  0  0  0  0  0  0
   10.1653   17.6339   17.2939 N   0  0  0  0  0  0  0  0  0  0  0  0
   11.0879   16.6535   17.3460 N   0  0  0  0  0  0  0  0  0  0  0  0
  2  1  1  1
  2  3  1  0
  3  4  1  0
  4  5  2  0
  5  6  1  0
  6  7  2  0
  7  8  1  0
  8  9  2  0
  9 10  1  0
 10 11  2  0
 11 12  1  0
 12 13  2  0
  2 14  1  0
 14 15  2  0
 14 16  1  0
 16 17  1  0
 17 18  1  0
 18 19  1  0
 19 20  2  0
 20 21  1  0
 21 22  1  0
 20 23  1  0
 23 24  1  0
 23 25  2  0
 25 26  1  0
 13  4  1  0
 22 16  1  0
 12  7  1  0
 26 19  1  0
M  END
>  <cnnaffinity>  (77) 
-5.88234

>  <cnnaffinityIC50>  (77) 
1311.1730073825515 nanomolar

>  <smiles>  (77) 
C[C@H](OC1=CN=C2C=CC=CC2=C1)C(=O)N1CCC2=C(CC1)C(O)=NN2

>  <origin>  (77) 
x1097-x0922.sdf

>  <ref_pdb>  (77) 
x0310

>  <butcher #BAD>  (77) 
8

>  <butcher #GOOD>  (77) 
18

>  <butcher #protein clash>  (77) 
4

>  <butcher #solvent space>  (77) 
4

>  <butcher #pocket>  (77) 
18

>  <butcher #P1>  (77) 
11

>  <butcher #P2>  (77) 
6

>  <butcher #P1'>  (77) 
1

>  <butcher #P2'>  (77) 
0

>  <butcher #P3>  (77) 
0

>  <butcher #P4>  (77) 
0

>  <butcher #P5>  (77) 
0

>  <butcher #P6>  (77) 
0

>  <ref_mols>  (77) 
A71x0922a

$$$$
Z2010660882
     RDKit          3D

 26 28  0  0  0  0  0  0  0  0999 V2000
    9.7689   14.7558   23.0311 O   0  0  0  0  0  0  0  0  0  0  0  0
   10.4284   13.9436   22.3994 C   0  0  0  0  0  0  0  0  0  0  0  0
   11.3387   12.9620   23.1481 C   0  0  0  0  0  0  0  0  0  0  0  0
   10.7471   11.6465   23.2655 O   0  0  0  0  0  0  0  0  0  0  0  0
    9.6063   11.5414   24.0350 C   0  0  0  0  0  0  0  0  0  0  0  0
    8.9317   10.3107   24.1189 C   0  0  0  0  0  0  0  0  0  0  0  0
    7.7872   10.1303   24.8153 N   0  0  0  0  0  0  0  0  0  0  0  0
    7.2697   11.1736   25.4996 C   0  0  0  0  0  0  0  0  0  0  0  0
    6.0702   11.0362   26.2342 C   0  0  0  0  0  0  0  0  0  0  0  0
    5.0550    9.4148   26.2661 Br  0  0  0  0  0  0  0  0  0  0  0  0
    5.5700   12.1122   26.9752 C   0  0  0  0  0  0  0  0  0  0  0  0
    6.2444   13.3323   27.0014 C   0  0  0  0  0  0  0  0  0  0  0  0
    7.4132   13.4971   26.2585 C   0  0  0  0  0  0  0  0  0  0  0  0
    7.9203   12.4328   25.5038 C   0  0  0  0  0  0  0  0  0  0  0  0
    9.0790   12.6158   24.7533 C   0  0  0  0  0  0  0  0  0  0  0  0
   10.2392   13.8531   21.0304 N   0  0  0  0  0  0  0  0  0  0  0  0
    9.0951   14.4590   20.3452 C   0  0  0  0  0  0  0  0  0  0  0  0
    9.4575   15.6142   19.4409 C   0  0  0  0  0  0  0  0  0  0  0  0
    8.6093   16.7399   19.4324 C   0  0  0  0  0  0  0  0  0  0  0  0
    8.8422   17.8199   18.5884 C   0  0  0  0  0  0  0  0  0  0  0  0
    9.9578   17.7906   17.7635 C   0  0  0  0  0  0  0  0  0  0  0  0
   10.8048   16.6929   17.7436 C   0  0  0  0  0  0  0  0  0  0  0  0
   10.5969   15.6111   18.6011 C   0  0  0  0  0  0  0  0  0  0  0  0
   11.5873   14.6215   18.6392 N   0  0  0  0  0  4  0  0  0  0  0  0
   12.7486   14.9760   18.8816 O   0  0  0  0  0  0  0  0  0  0  0  0
   11.2505   13.4728   18.3924 O   0  0  0  0  0  1  0  0  0  0  0  0
  1  2  2  0
  2  3  1  0
  3  4  1  0
  4  5  1  0
  5  6  2  0
  6  7  1  0
  7  8  2  0
  8  9  1  0
  9 10  1  0
  9 11  2  0
 11 12  1  0
 12 13  2  0
 13 14  1  0
 14 15  2  0
  2 16  1  0
 16 17  1  0
 17 18  1  0
 18 19  2  0
 19 20  1  0
 20 21  2  0
 21 22  1  0
 22 23  2  0
 23 24  1  0
 24 25  2  0
 24 26  1  0
 15  5  1  0
 23 18  1  0
 14  8  1  0
M  CHG  2  24   1  26  -1
M  END
>  <cnnaffinity>  (78) 
-5.88152

>  <cnnaffinityIC50>  (78) 
1313.6509977029784 nanomolar

>  <smiles>  (78) 
O=C(COC1=CN=C2C(Br)=CC=CC2=C1)NCC1=CC=CC=C1[N+](=O)[O-]

>  <origin>  (78) 
x1097-x0922.sdf

>  <ref_pdb>  (78) 
x0310

>  <butcher #BAD>  (78) 
8

>  <butcher #GOOD>  (78) 
18

>  <butcher #protein clash>  (78) 
5

>  <butcher #solvent space>  (78) 
3

>  <butcher #pocket>  (78) 
18

>  <butcher #P1>  (78) 
13

>  <butcher #P2>  (78) 
5

>  <butcher #P1'>  (78) 
0

>  <butcher #P2'>  (78) 
0

>  <butcher #P3>  (78) 
0

>  <butcher #P4>  (78) 
0

>  <butcher #P5>  (78) 
0

>  <butcher #P6>  (78) 
0

>  <ref_mols>  (78) 
A71x0922a

$$$$
Z2915575754
     RDKit          3D

 26 28  0  0  0  0  0  0  0  0999 V2000
   12.0245   13.9449   24.0702 C   0  0  0  0  0  0  0  0  0  0  0  0
   11.1267   13.5439   22.9040 C   0  0  2  0  0  0  0  0  0  0  0  0
   10.6751   12.2027   23.0612 O   0  0  0  0  0  0  0  0  0  0  0  0
    9.6596   11.9501   23.9252 C   0  0  0  0  0  0  0  0  0  0  0  0
    9.3007   10.5726   24.0415 C   0  0  0  0  0  0  0  0  0  0  0  0
    8.3244   10.1254   24.7812 N   0  0  0  0  0  0  0  0  0  0  0  0
    7.6018   11.0374   25.5037 C   0  0  0  0  0  0  0  0  0  0  0  0
    6.5224   10.5731   26.2966 C   0  0  0  0  0  0  0  0  0  0  0  0
    5.7815   11.4481   27.0453 C   0  0  0  0  0  0  0  0  0  0  0  0
    6.0862   12.8304   27.0394 C   0  0  0  0  0  0  0  0  0  0  0  0
    7.1203   13.3030   26.2746 C   0  0  0  0  0  0  0  0  0  0  0  0
    7.8949   12.4191   25.4815 C   0  0  0  0  0  0  0  0  0  0  0  0
    8.9593   12.8712   24.6566 C   0  0  0  0  0  0  0  0  0  0  0  0
   11.9290   13.5247   21.5992 C   0  0  0  0  0  0  0  0  0  0  0  0
   12.7921   12.6915   21.4359 O   0  0  0  0  0  0  0  0  0  0  0  0
   11.6733   14.4842   20.6519 N   0  0  0  0  0  0  0  0  0  0  0  0
   11.3854   15.8502   21.0204 C   0  0  0  0  0  0  0  0  0  0  0  0
   10.3680   16.4164   20.0581 C   0  0  0  0  0  0  0  0  0  0  0  0
   10.4963   15.9616   18.5893 C   0  0  0  0  0  0  0  0  0  0  0  0
   10.1864   17.2763   17.8156 C   0  0  1  0  0  0  0  0  0  0  0  0
    9.9900   17.1840   16.4529 F   0  0  0  0  0  0  0  0  0  0  0  0
    8.8577   17.8068   18.3301 C   0  0  0  0  0  0  0  0  0  0  0  0
    7.9189   16.8879   18.0510 N   0  0  0  0  0  0  0  0  0  0  0  0
    8.6344   18.8370   18.9318 O   0  0  0  0  0  0  0  0  0  0  0  0
   11.7841   15.1924   18.2274 C   0  0  0  0  0  0  0  0  0  0  0  0
   12.3988   14.3644   19.3895 C   0  0  0  0  0  0  0  0  0  0  0  0
  2  1  1  1
  2  3  1  0
  3  4  1  0
  4  5  2  0
  5  6  1  0
  6  7  2  0
  7  8  1  0
  8  9  2  0
  9 10  1  0
 10 11  2  0
 11 12  1  0
 12 13  2  0
  2 14  1  0
 14 15  2  0
 14 16  1  0
 16 17  1  0
 17 18  1  0
 18 19  1  0
 19 20  1  0
 20 21  1  6
 20 22  1  0
 22 23  1  0
 22 24  2  0
 19 25  1  0
 25 26  1  0
 13  4  1  0
 26 16  1  0
 12  7  1  0
M  END
>  <cnnaffinity>  (79) 
-5.87625

>  <cnnaffinityIC50>  (79) 
1329.6887672437945 nanomolar

>  <smiles>  (79) 
C[C@H](OC1=CN=C2C=CC=CC2=C1)C(=O)N1CCC(C(F)C(N)=O)CC1

>  <origin>  (79) 
x1097-x0922.sdf

>  <ref_pdb>  (79) 
x0310

>  <butcher #BAD>  (79) 
11

>  <butcher #GOOD>  (79) 
15

>  <butcher #protein clash>  (79) 
8

>  <butcher #solvent space>  (79) 
3

>  <butcher #pocket>  (79) 
15

>  <butcher #P1>  (79) 
11

>  <butcher #P2>  (79) 
3

>  <butcher #P1'>  (79) 
1

>  <butcher #P2'>  (79) 
0

>  <butcher #P3>  (79) 
0

>  <butcher #P4>  (79) 
0

>  <butcher #P5>  (79) 
0

>  <butcher #P6>  (79) 
0

>  <ref_mols>  (79) 
A71x0922a

$$$$
PV-002467298990
     RDKit          3D

 26 29  0  0  0  0  0  0  0  0999 V2000
   12.0827   13.8169   24.2621 C   0  0  0  0  0  0  0  0  0  0  0  0
   11.2285   13.4733   23.0458 C   0  0  2  0  0  0  0  0  0  0  0  0
   10.7437   12.1333   23.1338 O   0  0  0  0  0  0  0  0  0  0  0  0
    9.7007   11.8782   23.9642 C   0  0  0  0  0  0  0  0  0  0  0  0
    9.3226   10.5044   24.0634 C   0  0  0  0  0  0  0  0  0  0  0  0
    8.3302   10.0660   24.7890 N   0  0  0  0  0  0  0  0  0  0  0  0
    7.6106   10.9831   25.5078 C   0  0  0  0  0  0  0  0  0  0  0  0
    6.5206   10.5364   26.2973 C   0  0  0  0  0  0  0  0  0  0  0  0
    5.7881   11.4240   27.0390 C   0  0  0  0  0  0  0  0  0  0  0  0
    6.1037   12.8032   27.0251 C   0  0  0  0  0  0  0  0  0  0  0  0
    7.1460   13.2593   26.2634 C   0  0  0  0  0  0  0  0  0  0  0  0
    7.9170   12.3619   25.4863 C   0  0  0  0  0  0  0  0  0  0  0  0
    8.9954   12.8044   24.6799 C   0  0  0  0  0  0  0  0  0  0  0  0
   12.1008   13.4826   21.7861 C   0  0  0  0  0  0  0  0  0  0  0  0
   13.0540   12.7417   21.7256 O   0  0  0  0  0  0  0  0  0  0  0  0
   11.7881   14.3773   20.7877 N   0  0  0  0  0  0  0  0  0  0  0  0
   12.4217   14.2113   19.4827 C   0  0  0  0  0  0  0  0  0  0  0  0
   11.6965   15.0296   18.3862 C   0  0  0  0  0  0  0  0  0  0  0  0
   10.4030   15.7456   18.8284 C   0  0  0  0  0  0  0  0  0  0  0  0
   10.0211   16.9064   17.9100 C   0  0  1  0  0  0  0  0  0  0  0  0
    8.7860   16.8186   17.0143 C   0  0  0  0  0  0  0  0  0  0  0  0
    8.7905   17.6964   18.1907 C   0  0  0  0  0  0  0  0  0  0  0  0
    8.0154   17.4092   19.2600 F   0  0  0  0  0  0  0  0  0  0  0  0
    8.7825   19.0297   17.9783 F   0  0  0  0  0  0  0  0  0  0  0  0
   10.4588   16.3232   20.2557 C   0  0  0  0  0  0  0  0  0  0  0  0
   11.5682   15.7713   21.1237 C   0  0  0  0  0  0  0  0  0  0  0  0
  2  1  1  1
  2  3  1  0
  3  4  1  0
  4  5  2  0
  5  6  1  0
  6  7  2  0
  7  8  1  0
  8  9  2  0
  9 10  1  0
 10 11  2  0
 11 12  1  0
 12 13  2  0
  2 14  1  0
 14 15  2  0
 14 16  1  0
 16 17  1  0
 17 18  1  0
 18 19  1  0
 20 19  1  1
 20 21  1  0
 21 22  1  0
 22 23  1  0
 22 24  1  0
 19 25  1  0
 25 26  1  0
 13  4  1  0
 26 16  1  0
 12  7  1  0
 22 20  1  0
M  END
>  <cnnaffinity>  (80) 
-5.86973

>  <cnnaffinityIC50>  (80) 
1349.8017908310146 nanomolar

>  <smiles>  (80) 
C[C@H](OC1=CN=C2C=CC=CC2=C1)C(=O)N1CCC(C2CC2(F)F)CC1

>  <origin>  (80) 
x1097-x0922.sdf

>  <ref_pdb>  (80) 
x0310

>  <butcher #BAD>  (80) 
9

>  <butcher #GOOD>  (80) 
17

>  <butcher #protein clash>  (80) 
6

>  <butcher #solvent space>  (80) 
3

>  <butcher #pocket>  (80) 
17

>  <butcher #P1>  (80) 
11

>  <butcher #P2>  (80) 
5

>  <butcher #P1'>  (80) 
1

>  <butcher #P2'>  (80) 
0

>  <butcher #P3>  (80) 
0

>  <butcher #P4>  (80) 
0

>  <butcher #P5>  (80) 
0

>  <butcher #P6>  (80) 
0

>  <ref_mols>  (80) 
A71x0922a

$$$$
