Z2374414833
     RDKit          3D

 23 24  0  0  0  0  0  0  0  0999 V2000
    6.0130   11.3438   27.3317 C   0  0  0  0  0  0  0  0  0  0  0  0
    6.7036   12.3042   26.3646 C   0  0  0  0  0  0  0  0  0  0  0  0
    7.7854   11.6437   25.5041 C   0  0  0  0  0  0  0  0  0  0  0  0
    8.2872   12.5920   24.4088 C   0  0  0  0  0  0  0  0  0  0  0  0
    9.6092   13.6996   24.9401 S   0  0  0  0  0  6  0  0  0  0  0  0
    9.6003   14.8264   24.0231 O   0  0  0  0  0  0  0  0  0  0  0  0
    9.4326   13.8942   26.3730 O   0  0  0  0  0  0  0  0  0  0  0  0
   11.0743   12.8900   24.7851 N   0  0  0  0  0  0  0  0  0  0  0  0
   11.9628   13.0764   25.9393 C   0  0  0  0  0  0  0  0  0  0  0  0
   13.4259   12.9070   25.5411 C   0  0  0  0  0  0  0  0  0  0  0  0
   13.5986   11.8975   24.3864 C   0  0  0  0  0  0  0  0  0  0  0  0
   14.9953   11.3346   24.5002 C   0  0  0  0  0  0  0  0  0  0  0  0
   15.9616   11.8093   23.9494 O   0  0  0  0  0  0  0  0  0  0  0  0
   15.0786   10.2996   25.3653 O   0  0  0  0  0  0  0  0  0  0  0  0
   16.4121    9.8064   25.5916 C   0  0  0  0  0  0  0  0  0  0  0  0
   17.2333   10.6309   26.5954 C   0  0  2  0  0  0  0  0  0  0  0  0
   18.6700   10.0978   26.6139 C   0  0  0  0  0  0  0  0  0  0  0  0
   16.5914   10.7556   27.9817 C   0  0  0  0  0  0  0  0  0  0  0  0
   17.2437   11.8099   28.9160 C   0  0  0  0  0  0  0  0  0  0  0  0
   17.5020   10.7208   29.9829 C   0  0  0  0  0  0  0  0  0  0  0  0
   16.8320    9.6699   29.0707 C   0  0  0  0  0  0  0  0  0  0  0  0
   12.4727   10.8678   24.3835 C   0  0  0  0  0  0  0  0  0  0  0  0
   11.1309   11.5676   24.1350 C   0  0  0  0  0  0  0  0  0  0  0  0
  1  2  1  0
  2  3  1  0
  3  4  1  0
  4  5  1  0
  5  6  2  0
  5  7  2  0
  5  8  1  0
  8  9  1  0
  9 10  1  0
 10 11  1  0
 11 12  1  0
 12 13  2  0
 12 14  1  0
 14 15  1  0
 15 16  1  0
 16 17  1  1
 16 18  1  0
 18 19  1  0
 19 20  1  0
 20 21  1  0
 11 22  1  0
 22 23  1  0
 23  8  1  0
 21 18  1  0
M  END
>  <cnnaffinity>  (1) 
-5.62062

>  <cnnaffinityIC50>  (1) 
2395.4107818365896 nanomolar

>  <smiles>  (1) 
CCCCS(=O)(=O)N1CCC(C(=O)OCC(C)C2CCC2)CC1

>  <origin>  (1) 
x0875_elab.sdf

>  <ref_pdb>  (1) 
x0875

>  <butcher #BAD>  (1) 
9

>  <butcher #GOOD>  (1) 
14

>  <butcher #protein clash>  (1) 
8

>  <butcher #solvent space>  (1) 
1

>  <butcher #pocket>  (1) 
14

>  <butcher #P1>  (1) 
7

>  <butcher #P2>  (1) 
1

>  <butcher #P1'>  (1) 
1

>  <butcher #P2'>  (1) 
5

>  <butcher #P3>  (1) 
0

>  <butcher #P4>  (1) 
0

>  <butcher #P5>  (1) 
0

>  <butcher #P6>  (1) 
0

>  <ref_mols>  (1) 
A71x0875a

$$$$
Z3821337814
     RDKit          3D

 23 25  0  0  0  0  0  0  0  0999 V2000
   17.4294   10.7986   26.4289 C   0  0  0  0  0  0  0  0  0  0  0  0
   16.1370   11.4035   26.4375 O   0  0  0  0  0  0  0  0  0  0  0  0
   15.2198   10.7777   25.6850 C   0  0  0  0  0  0  0  0  0  0  0  0
   15.4679    9.7814   25.0457 O   0  0  0  0  0  0  0  0  0  0  0  0
   13.8497   11.4082   25.8163 C   0  0  1  0  0  0  0  0  0  0  0  0
   13.8057   12.9260   25.8138 C   0  0  0  0  0  0  0  0  0  0  0  0
   12.3517   13.3112   26.0262 C   0  0  0  0  0  0  0  0  0  0  0  0
   11.5207   12.9082   24.8734 N   0  0  0  0  0  0  0  0  0  0  0  0
   10.0228   13.7259   24.9491 S   0  0  0  0  0  6  0  0  0  0  0  0
   10.1903   15.0304   24.3404 O   0  0  0  0  0  0  0  0  0  0  0  0
    9.5190   13.6381   26.3166 O   0  0  0  0  0  0  0  0  0  0  0  0
    9.0628   12.7367   23.9395 N   0  0  0  0  0  0  0  0  0  0  0  0
    7.4249   12.4449   24.2497 S   0  0  0  0  0  6  0  0  0  0  0  0
    7.0071   11.1000   24.6491 O   0  0  0  0  0  0  0  0  0  0  0  0
    6.8473   13.1258   22.6773 C   0  0  0  0  0  0  0  0  0  0  0  0
    7.1402   14.6100   22.8617 C   0  0  0  0  0  0  0  0  0  0  0  0
    6.5754   14.9830   24.2451 C   0  0  0  0  0  0  0  0  0  0  0  0
    6.7087   13.7701   25.1864 C   0  0  0  0  0  0  0  0  0  0  0  0
   11.5407   11.4636   24.5505 C   0  0  0  0  0  0  0  0  0  0  0  0
   11.0020   11.0023   23.1622 C   0  0  0  0  0  0  0  0  0  0  0  0
   10.0076   10.0442   23.8485 C   0  0  0  0  0  0  0  0  0  0  0  0
   10.4617   10.5761   25.2219 C   0  0  0  0  0  0  0  0  0  0  0  0
   12.9564   10.8736   24.7031 C   0  0  0  0  0  0  0  0  0  0  0  0
  1  2  1  0
  2  3  1  0
  3  4  2  0
  5  3  1  6
  5  6  1  0
  6  7  1  0
  7  8  1  0
  8  9  1  0
  9 10  2  0
  9 11  2  0
  9 12  1  0
 12 13  2  0
 13 14  2  0
 13 15  1  0
 15 16  1  0
 16 17  1  0
 17 18  1  0
  8 19  1  0
 19 20  1  0
 20 21  1  0
 21 22  1  0
 19 23  1  0
 23  5  1  0
 18 13  1  0
 22 19  1  0
M  END
>  <cnnaffinity>  (2) 
-5.61559

>  <cnnaffinityIC50>  (2) 
2423.315722356725 nanomolar

>  <smiles>  (2) 
COC(=O)C1CCN(S(=O)(=O)N=S2(=O)CCCC2)C2(CCC2)C1

>  <origin>  (2) 
x0875_elab.sdf

>  <ref_pdb>  (2) 
x0875

>  <butcher #BAD>  (2) 
8

>  <butcher #GOOD>  (2) 
15

>  <butcher #protein clash>  (2) 
8

>  <butcher #solvent space>  (2) 
0

>  <butcher #pocket>  (2) 
15

>  <butcher #P1>  (2) 
9

>  <butcher #P2>  (2) 
3

>  <butcher #P1'>  (2) 
0

>  <butcher #P2'>  (2) 
3

>  <butcher #P3>  (2) 
0

>  <butcher #P4>  (2) 
0

>  <butcher #P5>  (2) 
0

>  <butcher #P6>  (2) 
0

>  <ref_mols>  (2) 
A71x0875a

$$$$
Z95687357
     RDKit          3D

 23 24  0  0  0  0  0  0  0  0999 V2000
   10.5673   14.7828   26.6553 C   0  0  0  0  0  0  0  0  0  0  0  0
   10.3161   14.5723   25.1457 C   0  0  0  0  0  0  0  0  0  0  0  0
   10.0921   12.8388   24.6796 S   0  0  0  0  0  6  0  0  0  0  0  0
    9.7176   12.7322   23.2579 O   0  0  0  0  0  0  0  0  0  0  0  0
    9.1188   12.1420   25.5333 O   0  0  0  0  0  0  0  0  0  0  0  0
   11.6678   12.1439   24.8906 N   0  0  0  0  0  0  0  0  0  0  0  0
   12.8226   13.0434   24.7132 C   0  0  0  0  0  0  0  0  0  0  0  0
   14.1537   12.2784   24.8619 C   0  0  0  0  0  0  0  0  0  0  0  0
   13.9757   11.0096   25.7166 C   0  0  0  0  0  0  0  0  0  0  0  0
   15.3007   10.3014   26.0713 C   0  0  0  0  0  0  0  0  0  0  0  0
   15.6133    9.3044   25.4180 O   0  0  0  0  0  0  0  0  0  0  0  0
   15.8915   10.6910   27.2448 O   0  0  0  0  0  0  0  0  0  0  0  0
   17.2546   10.5264   27.3758 C   0  0  0  0  0  0  0  0  0  0  0  0
   17.8512   10.4493   28.6475 C   0  0  0  0  0  0  0  0  0  0  0  0
   17.0133   10.3954   29.8980 C   0  0  0  0  0  0  0  0  0  0  0  0
   19.2517   10.4551   28.7562 C   0  0  0  0  0  0  0  0  0  0  0  0
   20.0668   10.5007   27.6208 C   0  0  0  0  0  0  0  0  0  0  0  0
   21.9719   10.5160   27.8178 Br  0  0  0  0  0  0  0  0  0  0  0  0
   19.4742   10.5483   26.3578 C   0  0  0  0  0  0  0  0  0  0  0  0
   18.0810   10.5623   26.2473 C   0  0  0  0  0  0  0  0  0  0  0  0
   17.3181   10.6821   24.7064 Cl  0  0  0  0  0  0  0  0  0  0  0  0
   12.9782   10.0760   24.9716 C   0  0  0  0  0  0  0  0  0  0  0  0
   11.7981   10.8030   24.3174 C   0  0  0  0  0  0  0  0  0  0  0  0
  1  2  1  0
  2  3  1  0
  3  4  2  0
  3  5  2  0
  3  6  1  0
  6  7  1  0
  7  8  1  0
  8  9  1  0
  9 10  1  0
 10 11  2  0
 10 12  1  0
 12 13  1  0
 13 14  2  0
 14 15  1  0
 14 16  1  0
 16 17  2  0
 17 18  1  0
 17 19  1  0
 19 20  2  0
 20 21  1  0
  9 22  1  0
 22 23  1  0
 23  6  1  0
 20 13  1  0
M  END
>  <cnnaffinity>  (3) 
-5.54239

>  <cnnaffinityIC50>  (3) 
2868.2037547402183 nanomolar

>  <smiles>  (3) 
CCS(=O)(=O)N1CCC(C(=O)OC2=C(C)C=C(Br)C=C2Cl)CC1

>  <origin>  (3) 
x0875_elab.sdf

>  <ref_pdb>  (3) 
x0875

>  <butcher #BAD>  (3) 
10

>  <butcher #GOOD>  (3) 
13

>  <butcher #protein clash>  (3) 
7

>  <butcher #solvent space>  (3) 
3

>  <butcher #pocket>  (3) 
13

>  <butcher #P1>  (3) 
4

>  <butcher #P2>  (3) 
0

>  <butcher #P1'>  (3) 
2

>  <butcher #P2'>  (3) 
7

>  <butcher #P3>  (3) 
0

>  <butcher #P4>  (3) 
0

>  <butcher #P5>  (3) 
0

>  <butcher #P6>  (3) 
0

>  <ref_mols>  (3) 
A71x0875a

$$$$
Z2569547426
     RDKit          3D

 23 25  0  0  0  0  0  0  0  0999 V2000
   15.0001    9.9745   24.6542 O   0  0  0  0  0  0  0  0  0  0  0  0
   14.8007   11.1304   24.3595 C   0  0  0  0  0  0  0  0  0  0  0  0
   15.8027   11.9843   24.0766 O   0  0  0  0  0  0  0  0  0  0  0  0
   13.4391   11.7852   24.3062 C   0  0  0  0  0  0  0  0  0  0  0  0
   13.3059   12.8202   25.4447 C   0  0  0  0  0  0  0  0  0  0  0  0
   11.8616   12.9518   25.9441 C   0  0  0  0  0  0  0  0  0  0  0  0
   10.8992   12.6334   24.8820 N   0  0  0  0  0  0  0  0  0  0  0  0
    9.4427   13.4201   24.9940 S   0  0  0  0  0  6  0  0  0  0  0  0
    9.4070   14.5128   24.0373 O   0  0  0  0  0  0  0  0  0  0  0  0
    9.1991   13.6959   26.4050 O   0  0  0  0  0  0  0  0  0  0  0  0
    8.3461   12.2314   24.4639 N   0  0  0  0  0  0  0  0  0  0  0  0
    7.0805   12.8592   24.0103 C   0  0  0  0  0  0  0  0  0  0  0  0
    6.2590   12.9988   25.2796 C   0  0  0  0  0  0  0  0  0  0  0  0
    6.5069   11.6744   26.0071 C   0  0  2  0  0  0  0  0  0  0  0  0
    6.2707   11.7023   27.5282 C   0  0  0  0  0  0  0  0  0  0  0  0
    5.0552   12.5604   27.9307 C   0  0  0  0  0  0  0  0  0  0  0  0
    4.7447   12.4163   29.4229 C   0  0  0  0  0  0  0  0  0  0  0  0
    4.3483   10.9748   29.8052 C   0  0  0  0  0  0  0  0  0  0  0  0
    4.8142    9.9447   28.7642 C   0  0  0  0  0  0  0  0  0  0  0  0
    6.1672   10.2704   28.1148 C   0  0  0  0  0  0  0  0  0  0  0  0
    7.9488   11.2921   25.5627 C   0  0  0  0  0  0  0  0  0  0  0  0
   10.9679   11.3053   24.2549 C   0  0  0  0  0  0  0  0  0  0  0  0
   12.3643   10.7078   24.3830 C   0  0  0  0  0  0  0  0  0  0  0  0
  1  2  2  0
  2  3  1  0
  2  4  1  0
  4  5  1  0
  5  6  1  0
  6  7  1  0
  7  8  1  0
  8  9  2  0
  8 10  2  0
  8 11  1  0
 11 12  1  0
 12 13  1  0
 13 14  1  0
 14 15  1  1
 15 16  1  0
 16 17  1  0
 17 18  1  0
 18 19  1  0
 19 20  1  0
 14 21  1  0
  7 22  1  0
 22 23  1  0
 23  4  1  0
 21 11  1  0
 20 15  1  0
M  END
>  <cnnaffinity>  (4) 
-5.50184

>  <cnnaffinityIC50>  (4) 
3148.9082010824045 nanomolar

>  <smiles>  (4) 
O=C(O)C1CCN(S(=O)(=O)N2CCC(C3CCCCC3)C2)CC1

>  <origin>  (4) 
x0875_elab.sdf

>  <ref_pdb>  (4) 
x0875

>  <butcher #BAD>  (4) 
13

>  <butcher #GOOD>  (4) 
10

>  <butcher #protein clash>  (4) 
7

>  <butcher #solvent space>  (4) 
6

>  <butcher #pocket>  (4) 
10

>  <butcher #P1>  (4) 
8

>  <butcher #P2>  (4) 
1

>  <butcher #P1'>  (4) 
0

>  <butcher #P2'>  (4) 
1

>  <butcher #P3>  (4) 
0

>  <butcher #P4>  (4) 
0

>  <butcher #P5>  (4) 
0

>  <butcher #P6>  (4) 
0

>  <ref_mols>  (4) 
A71x0875a

$$$$
Z2361552376
     RDKit          3D

 23 25  0  0  0  0  0  0  0  0999 V2000
   16.2920   10.8447   25.2886 O   0  0  0  0  0  0  0  0  0  0  0  0
   15.2086   10.4017   24.9525 C   0  0  0  0  0  0  0  0  0  0  0  0
   14.9443    9.0754   24.9195 O   0  0  0  0  0  0  0  0  0  0  0  0
   14.0997   11.3794   24.5007 C   0  0  0  0  0  0  0  0  0  0  0  0
   14.0652   12.7201   25.2955 C   0  0  0  0  0  0  0  0  0  0  0  0
   12.9329   12.7680   26.3267 C   0  0  0  0  0  0  0  0  0  0  0  0
   11.6162   12.5568   25.6760 N   0  0  0  0  0  0  0  0  0  0  0  0
   10.5941   13.9790   25.5944 S   0  0  0  0  0  6  0  0  0  0  0  0
   11.0353   14.8520   24.5002 O   0  0  0  0  0  0  0  0  0  0  0  0
   10.7362   14.6708   26.8871 O   0  0  0  0  0  0  0  0  0  0  0  0
    8.8674   13.4151   25.3900 C   0  0  0  0  0  0  0  0  0  0  0  0
    8.1338   13.1563   26.5691 C   0  0  0  0  0  0  0  0  0  0  0  0
    6.7652   12.9405   26.5365 C   0  0  0  0  0  0  0  0  0  0  0  0
    6.0859   13.0155   25.3339 C   0  0  0  0  0  0  0  0  0  0  0  0
    6.7917   13.2584   24.1557 C   0  0  0  0  0  0  0  0  0  0  0  0
    6.0608   13.3725   22.9739 C   0  0  0  0  0  0  0  0  0  0  0  0
    6.6329   13.5612   21.7839 N   0  0  0  0  0  0  0  0  0  0  0  0
    7.9639   13.6564   21.7428 C   0  0  0  0  0  0  0  0  0  0  0  0
    8.7851   13.5954   22.8691 C   0  0  0  0  0  0  0  0  0  0  0  0
   10.6421   13.6937   22.4447 Br  0  0  0  0  0  0  0  0  0  0  0  0
    8.1969   13.4173   24.1427 C   0  0  0  0  0  0  0  0  0  0  0  0
   11.5895   11.7310   24.4659 C   0  0  0  0  0  0  0  0  0  0  0  0
   12.7029   10.6892   24.5147 C   0  0  0  0  0  0  0  0  0  0  0  0
  1  2  2  0
  2  3  1  0
  2  4  1  0
  4  5  1  0
  5  6  1  0
  6  7  1  0
  7  8  1  0
  8  9  2  0
  8 10  2  0
  8 11  1  0
 11 12  2  0
 12 13  1  0
 13 14  2  0
 14 15  1  0
 15 16  2  0
 16 17  1  0
 17 18  2  0
 18 19  1  0
 19 20  1  0
 19 21  2  0
  7 22  1  0
 22 23  1  0
 23  4  1  0
 21 11  1  0
 21 15  1  0
M  END
>  <cnnaffinity>  (5) 
-5.4945

>  <cnnaffinityIC50>  (5) 
3202.5800946290256 nanomolar

>  <smiles>  (5) 
O=C(O)C1CCN(S(=O)(=O)C2=CC=CC3=CN=CC(Br)=C23)CC1

>  <origin>  (5) 
x0875_elab.sdf

>  <ref_pdb>  (5) 
x0875

>  <butcher #BAD>  (5) 
8

>  <butcher #GOOD>  (5) 
15

>  <butcher #protein clash>  (5) 
8

>  <butcher #solvent space>  (5) 
0

>  <butcher #pocket>  (5) 
15

>  <butcher #P1>  (5) 
10

>  <butcher #P2>  (5) 
1

>  <butcher #P1'>  (5) 
1

>  <butcher #P2'>  (5) 
2

>  <butcher #P3>  (5) 
1

>  <butcher #P4>  (5) 
0

>  <butcher #P5>  (5) 
0

>  <butcher #P6>  (5) 
0

>  <ref_mols>  (5) 
A71x0875a

$$$$
Z3642591692
     RDKit          3D

 23 24  0  0  0  0  0  0  0  0999 V2000
   17.5843   10.6366   26.0197 C   0  0  0  0  0  0  0  0  0  0  0  0
   16.7522   10.1585   25.0986 C   0  0  0  0  0  0  0  0  0  0  0  0
   15.2775   10.4668   25.1018 C   0  0  0  0  0  0  0  0  0  0  0  0
   14.9140   11.6944   24.2464 C   0  0  0  0  0  0  0  0  0  0  0  0
   13.4700   12.2122   24.4459 C   0  0  0  0  0  0  0  0  0  0  0  0
   13.1620   13.1411   23.2605 C   0  0  0  0  0  0  0  0  0  0  0  0
   12.7442   12.7467   22.1945 O   0  0  0  0  0  0  0  0  0  0  0  0
   13.4198   14.4398   23.4860 O   0  0  0  0  0  0  0  0  0  0  0  0
   13.1385   15.3110   22.3809 C   0  0  0  0  0  0  0  0  0  0  0  0
   13.3437   12.9412   25.7896 C   0  0  0  0  0  0  0  0  0  0  0  0
   11.8832   13.1715   26.1903 C   0  0  0  0  0  0  0  0  0  0  0  0
   10.9858   12.9909   25.0375 N   0  0  0  0  0  0  0  0  0  0  0  0
    9.5283   13.8102   25.1700 S   0  0  0  0  0  6  0  0  0  0  0  0
    9.5891   14.9876   24.3130 O   0  0  0  0  0  0  0  0  0  0  0  0
    9.2963   13.9246   26.6055 O   0  0  0  0  0  0  0  0  0  0  0  0
    8.1655   12.7874   24.5428 C   0  0  1  0  0  0  0  0  0  0  0  0
    7.7929   11.6445   25.5073 C   0  0  0  0  0  0  0  0  0  0  0  0
    6.6711   12.2291   26.3713 C   0  0  0  0  0  0  0  0  0  0  0  0
    5.8509   13.0213   25.3570 C   0  0  0  0  0  0  0  0  0  0  0  0
    6.9045   13.6972   24.4587 C   0  0  2  0  0  0  0  0  0  0  0  0
    6.4254   13.9509   23.0374 C   0  0  0  0  0  0  0  0  0  0  0  0
   11.0087   11.6434   24.4483 C   0  0  0  0  0  0  0  0  0  0  0  0
   12.4327   11.0775   24.4455 C   0  0  0  0  0  0  0  0  0  0  0  0
  1  2  2  0
  2  3  1  0
  3  4  1  0
  4  5  1  0
  5  6  1  0
  6  7  2  0
  6  8  1  0
  8  9  1  0
  5 10  1  0
 10 11  1  0
 11 12  1  0
 12 13  1  0
 13 14  2  0
 13 15  2  0
 16 13  1  1
 16 17  1  0
 17 18  1  0
 18 19  1  0
 19 20  1  0
 20 21  1  6
 12 22  1  0
 22 23  1  0
 23  5  1  0
 20 16  1  0
M  END
>  <cnnaffinity>  (6) 
-5.48876

>  <cnnaffinityIC50>  (6) 
3245.1890357971693 nanomolar

>  <smiles>  (6) 
C=CCCC1(C(=O)OC)CCN(S(=O)(=O)C2CCCC2C)CC1

>  <origin>  (6) 
x0875_elab.sdf

>  <ref_pdb>  (6) 
x0875

>  <butcher #BAD>  (6) 
8

>  <butcher #GOOD>  (6) 
15

>  <butcher #protein clash>  (6) 
8

>  <butcher #solvent space>  (6) 
0

>  <butcher #pocket>  (6) 
15

>  <butcher #P1>  (6) 
8

>  <butcher #P2>  (6) 
3

>  <butcher #P1'>  (6) 
1

>  <butcher #P2'>  (6) 
3

>  <butcher #P3>  (6) 
0

>  <butcher #P4>  (6) 
0

>  <butcher #P5>  (6) 
0

>  <butcher #P6>  (6) 
0

>  <ref_mols>  (6) 
A71x0875a

$$$$
Z3620091709
     RDKit          3D

 23 25  0  0  0  0  0  0  0  0999 V2000
   16.3943   11.0560   25.9948 C   0  0  0  0  0  0  0  0  0  0  0  0
   15.5884   10.8561   24.9552 C   0  0  0  0  0  0  0  0  0  0  0  0
   15.0739   11.9193   24.0143 C   0  0  0  0  0  0  0  0  0  0  0  0
   13.6026   12.3324   24.3060 C   0  0  0  0  0  0  0  0  0  0  0  0
   13.0334   13.0791   23.0870 C   0  0  0  0  0  0  0  0  0  0  0  0
   12.4346   12.5042   22.2036 O   0  0  0  0  0  0  0  0  0  0  0  0
   13.2099   14.4116   23.0379 O   0  0  0  0  0  0  0  0  0  0  0  0
   12.6094   14.9666   21.8364 C   0  0  0  0  0  0  0  0  0  0  0  0
   12.5749   16.4664   21.9123 C   0  0  0  0  0  0  0  0  0  0  0  0
   13.5708   13.1684   25.5910 C   0  0  0  0  0  0  0  0  0  0  0  0
   12.1472   13.3507   26.1251 C   0  0  0  0  0  0  0  0  0  0  0  0
   11.1809   13.0081   25.0735 N   0  0  0  0  0  0  0  0  0  0  0  0
    9.7361   13.8490   25.1971 S   0  0  0  0  0  6  0  0  0  0  0  0
    9.8758   15.0604   24.4025 O   0  0  0  0  0  0  0  0  0  0  0  0
    9.4020   13.9153   26.6107 O   0  0  0  0  0  0  0  0  0  0  0  0
    8.4168   12.8671   24.4872 C   0  0  0  0  0  0  0  0  0  0  0  0
    7.9433   11.7616   25.4579 C   0  0  0  0  0  0  0  0  0  0  0  0
    6.7920   12.6765   25.8683 C   0  0  0  0  0  0  0  0  0  0  0  0
    5.4354   12.2446   26.3244 C   0  0  0  0  0  0  0  0  0  0  0  0
    6.3696   12.9513   27.2743 C   0  0  0  0  0  0  0  0  0  0  0  0
    7.0899   13.6317   24.7131 C   0  0  0  0  0  0  0  0  0  0  0  0
   11.2205   11.5903   24.6753 C   0  0  0  0  0  0  0  0  0  0  0  0
   12.6827   11.1251   24.5637 C   0  0  0  0  0  0  0  0  0  0  0  0
  1  2  2  0
  2  3  1  0
  3  4  1  0
  4  5  1  0
  5  6  2  0
  5  7  1  0
  7  8  1  0
  8  9  1  0
  4 10  1  0
 10 11  1  0
 11 12  1  0
 12 13  1  0
 13 14  2  0
 13 15  2  0
 13 16  1  0
 16 17  1  0
 17 18  1  0
 18 19  1  0
 19 20  1  0
 18 21  1  0
 12 22  1  0
 22 23  1  0
 23  4  1  0
 21 16  1  0
 20 18  1  0
M  END
>  <cnnaffinity>  (7) 
-5.48514

>  <cnnaffinityIC50>  (7) 
3272.3518971256503 nanomolar

>  <smiles>  (7) 
C=CCC1(C(=O)OCC)CCN(S(=O)(=O)C2CC3(CC3)C2)CC1

>  <origin>  (7) 
x0875_elab.sdf

>  <ref_pdb>  (7) 
x0875

>  <butcher #BAD>  (7) 
6

>  <butcher #GOOD>  (7) 
17

>  <butcher #protein clash>  (7) 
6

>  <butcher #solvent space>  (7) 
0

>  <butcher #pocket>  (7) 
17

>  <butcher #P1>  (7) 
9

>  <butcher #P2>  (7) 
3

>  <butcher #P1'>  (7) 
2

>  <butcher #P2'>  (7) 
3

>  <butcher #P3>  (7) 
0

>  <butcher #P4>  (7) 
0

>  <butcher #P5>  (7) 
0

>  <butcher #P6>  (7) 
0

>  <ref_mols>  (7) 
A71x0875a

$$$$
Z2275425425
     RDKit          3D

 23 24  0  0  0  0  0  0  0  0999 V2000
   16.9572   10.5811   26.3393 C   0  0  0  0  0  0  0  0  0  0  0  0
   16.2395    9.7332   25.3033 C   0  0  0  0  0  0  0  0  0  0  0  0
   14.8902   10.1966   25.0713 O   0  0  0  0  0  0  0  0  0  0  0  0
   14.8053   11.2915   24.2875 C   0  0  0  0  0  0  0  0  0  0  0  0
   15.7661   11.7822   23.7425 O   0  0  0  0  0  0  0  0  0  0  0  0
   13.4223   11.8946   24.2303 C   0  0  0  0  0  0  0  0  0  0  0  0
   13.2970   12.8705   25.4168 C   0  0  0  0  0  0  0  0  0  0  0  0
   11.8314   13.1037   25.7556 C   0  0  0  0  0  0  0  0  0  0  0  0
   11.0335   13.0507   24.5131 N   0  0  0  0  0  0  0  0  0  0  0  0
    9.6114   13.9024   24.6186 S   0  0  0  0  0  6  0  0  0  0  0  0
    9.7221   15.1452   23.8700 O   0  0  0  0  0  0  0  0  0  0  0  0
    9.2474   13.8974   26.0237 O   0  0  0  0  0  0  0  0  0  0  0  0
    8.5080   12.9005   23.7635 N   0  0  0  0  0  0  0  0  0  0  0  0
    7.1726   13.0070   24.2720 C   0  0  0  0  0  0  0  0  0  0  0  0
    6.2657   13.8889   23.6885 C   0  0  0  0  0  0  0  0  0  0  0  0
    5.0547   14.1196   24.1779 N   0  0  0  0  0  0  0  0  0  0  0  0
    4.7211   13.4891   25.3002 C   0  0  0  0  0  0  0  0  0  0  0  0
    5.5584   12.5633   25.9212 C   0  0  0  0  0  0  0  0  0  0  0  0
    5.0297   11.8096   27.3972 Cl  0  0  0  0  0  0  0  0  0  0  0  0
    6.7999   12.2396   25.3749 C   0  0  0  0  0  0  0  0  0  0  0  0
    7.7216   11.1721   25.8838 C   0  0  0  0  0  0  0  0  0  0  0  0
   10.9628   11.6885   23.9414 C   0  0  0  0  0  0  0  0  0  0  0  0
   12.2510   10.9144   24.2261 C   0  0  0  0  0  0  0  0  0  0  0  0
  1  2  1  0
  2  3  1  0
  3  4  1  0
  4  5  2  0
  4  6  1  0
  6  7  1  0
  7  8  1  0
  8  9  1  0
  9 10  1  0
 10 11  2  0
 10 12  2  0
 10 13  1  0
 13 14  1  0
 14 15  2  0
 15 16  1  0
 16 17  2  0
 17 18  1  0
 18 19  1  0
 18 20  2  0
 20 21  1  0
  9 22  1  0
 22 23  1  0
 23  6  1  0
 20 14  1  0
M  END
>  <cnnaffinity>  (8) 
-5.47804

>  <cnnaffinityIC50>  (8) 
3326.2891562780455 nanomolar

>  <smiles>  (8) 
CCOC(=O)C1CCN(S(=O)(=O)NC2=CN=CC(Cl)=C2C)CC1

>  <origin>  (8) 
x0875_elab.sdf

>  <ref_pdb>  (8) 
x0875

>  <butcher #BAD>  (8) 
10

>  <butcher #GOOD>  (8) 
13

>  <butcher #protein clash>  (8) 
8

>  <butcher #solvent space>  (8) 
2

>  <butcher #pocket>  (8) 
13

>  <butcher #P1>  (8) 
8

>  <butcher #P2>  (8) 
1

>  <butcher #P1'>  (8) 
0

>  <butcher #P2'>  (8) 
2

>  <butcher #P3>  (8) 
2

>  <butcher #P4>  (8) 
0

>  <butcher #P5>  (8) 
0

>  <butcher #P6>  (8) 
0

>  <ref_mols>  (8) 
A71x0875a

$$$$
Z1271294956
     RDKit          3D

 23 24  0  0  0  0  0  0  0  0999 V2000
   16.4321   10.5731   26.3712 C   0  0  0  0  0  0  0  0  0  0  0  0
   16.1362   11.7415   25.4517 C   0  0  0  0  0  0  0  0  0  0  0  0
   14.7672   12.1760   25.5382 O   0  0  0  0  0  0  0  0  0  0  0  0
   13.8419   11.3839   24.9713 C   0  0  0  0  0  0  0  0  0  0  0  0
   14.0960   10.2974   24.5002 O   0  0  0  0  0  0  0  0  0  0  0  0
   12.4651   12.0276   25.0418 C   0  0  0  0  0  0  0  0  0  0  0  0
   12.4348   13.4190   24.3984 C   0  0  0  0  0  0  0  0  0  0  0  0
   11.0731   14.0588   24.6733 C   0  0  0  0  0  0  0  0  0  0  0  0
    9.9830   13.1014   24.4194 N   0  0  0  0  0  0  0  0  0  0  0  0
    8.4340   13.6898   24.4903 S   0  0  0  0  0  6  0  0  0  0  0  0
    8.4846   15.0859   24.0771 O   0  0  0  0  0  0  0  0  0  0  0  0
    7.8492   13.3197   25.7685 O   0  0  0  0  0  0  0  0  0  0  0  0
    7.6006   12.8189   23.3202 N   0  0  0  0  0  0  0  0  0  0  0  0
    7.0070   13.5542   22.1866 C   0  0  0  0  0  0  0  0  0  0  0  0
    5.5124   13.3939   22.1138 C   0  0  0  0  0  0  0  0  0  0  0  0
    4.5858   13.7443   23.0536 C   0  0  0  0  0  0  0  0  0  0  0  0
    4.8569   14.1529   24.4716 C   0  0  0  0  0  0  0  0  0  0  0  0
    3.2688   13.6392   22.6491 N   0  0  0  0  0  0  0  0  0  0  0  0
    3.1741   13.1604   21.4504 C   0  0  0  0  0  0  0  0  0  0  0  0
    1.8640   13.0136   20.7495 C   0  0  0  0  0  0  0  0  0  0  0  0
    4.6912   12.7383   20.7325 S   0  0  0  0  0  0  0  0  0  0  0  0
   10.3373   11.8865   23.6842 C   0  0  0  0  0  0  0  0  0  0  0  0
   11.3953   11.0959   24.4524 C   0  0  0  0  0  0  0  0  0  0  0  0
  1  2  1  0
  2  3  1  0
  3  4  1  0
  4  5  2  0
  4  6  1  0
  6  7  1  0
  7  8  1  0
  8  9  1  0
  9 10  1  0
 10 11  2  0
 10 12  2  0
 10 13  1  0
 13 14  1  0
 14 15  1  0
 15 16  2  0
 16 17  1  0
 16 18  1  0
 18 19  2  0
 19 20  1  0
 19 21  1  0
  9 22  1  0
 22 23  1  0
 23  6  1  0
 21 15  1  0
M  END
>  <cnnaffinity>  (9) 
-5.47047

>  <cnnaffinityIC50>  (9) 
3384.776522666624 nanomolar

>  <smiles>  (9) 
CCOC(=O)C1CCN(S(=O)(=O)NCC2=C(C)N=C(C)S2)CC1

>  <origin>  (9) 
x0875_elab.sdf

>  <ref_pdb>  (9) 
x0875

>  <butcher #BAD>  (9) 
8

>  <butcher #GOOD>  (9) 
15

>  <butcher #protein clash>  (9) 
8

>  <butcher #solvent space>  (9) 
0

>  <butcher #pocket>  (9) 
15

>  <butcher #P1>  (9) 
7

>  <butcher #P2>  (9) 
0

>  <butcher #P1'>  (9) 
1

>  <butcher #P2'>  (9) 
3

>  <butcher #P3>  (9) 
3

>  <butcher #P4>  (9) 
0

>  <butcher #P5>  (9) 
1

>  <butcher #P6>  (9) 
0

>  <ref_mols>  (9) 
A71x0875a

$$$$
Z3356881591
     RDKit          3D

 23 24  0  0  0  0  0  0  0  0999 V2000
   16.5248    9.7219   25.1715 C   0  0  0  0  0  0  0  0  0  0  0  0
   15.1750   10.1359   24.9433 O   0  0  0  0  0  0  0  0  0  0  0  0
   15.0760   11.3324   24.3290 C   0  0  0  0  0  0  0  0  0  0  0  0
   16.0427   11.9263   23.9147 O   0  0  0  0  0  0  0  0  0  0  0  0
   13.6798   11.8992   24.3262 C   0  0  0  0  0  0  0  0  0  0  0  0
   13.5993   12.8664   25.5277 C   0  0  0  0  0  0  0  0  0  0  0  0
   12.1506   13.1178   25.9287 C   0  0  0  0  0  0  0  0  0  0  0  0
   11.2952   12.9812   24.7411 N   0  0  0  0  0  0  0  0  0  0  0  0
    9.9091   13.8930   24.8285 S   0  0  0  0  0  6  0  0  0  0  0  0
   10.0083   15.0279   23.9315 O   0  0  0  0  0  0  0  0  0  0  0  0
    9.6357   14.0635   26.2448 O   0  0  0  0  0  0  0  0  0  0  0  0
    8.7254   12.8893   24.1580 N   0  0  0  0  0  0  0  0  0  0  0  0
    7.6313   12.3512   24.8705 C   0  0  0  0  0  0  0  0  0  0  0  0
    6.5526   12.3233   24.3197 O   0  0  0  0  0  0  0  0  0  0  0  0
    7.8598   11.7686   26.2405 C   0  0  0  0  0  0  0  0  0  0  0  0
    6.9415   12.4087   27.3040 C   0  0  0  0  0  0  0  0  0  0  0  0
    5.5420   11.7874   27.3890 C   0  0  0  0  0  0  0  0  0  0  0  0
    5.5391   10.3591   27.9231 C   0  0  0  0  0  0  0  0  0  0  0  0
    6.1012   10.1528   29.3545 C   0  0  0  0  0  0  0  0  0  0  0  0
    4.7883    9.4564   29.7728 C   0  0  0  0  0  0  0  0  0  0  0  0
    4.1790    9.7844   28.3918 C   0  0  0  0  0  0  0  0  0  0  0  0
   11.2028   11.5972   24.2325 C   0  0  0  0  0  0  0  0  0  0  0  0
   12.5492   10.8786   24.3884 C   0  0  0  0  0  0  0  0  0  0  0  0
  1  2  1  0
  2  3  1  0
  3  4  2  0
  3  5  1  0
  5  6  1  0
  6  7  1  0
  7  8  1  0
  8  9  1  0
  9 10  2  0
  9 11  2  0
  9 12  1  0
 12 13  1  0
 13 14  2  0
 13 15  1  0
 15 16  1  0
 16 17  1  0
 17 18  1  0
 18 19  1  0
 19 20  1  0
 20 21  1  0
  8 22  1  0
 22 23  1  0
 23  5  1  0
 21 18  1  0
M  END
>  <cnnaffinity>  (10) 
-5.44944

>  <cnnaffinityIC50>  (10) 
3552.711976217914 nanomolar

>  <smiles>  (10) 
COC(=O)C1CCN(S(=O)(=O)NC(=O)CCCC2CCC2)CC1

>  <origin>  (10) 
x0875_elab.sdf

>  <ref_pdb>  (10) 
x0875

>  <butcher #BAD>  (10) 
13

>  <butcher #GOOD>  (10) 
10

>  <butcher #protein clash>  (10) 
8

>  <butcher #solvent space>  (10) 
5

>  <butcher #pocket>  (10) 
10

>  <butcher #P1>  (10) 
8

>  <butcher #P2>  (10) 
1

>  <butcher #P1'>  (10) 
0

>  <butcher #P2'>  (10) 
1

>  <butcher #P3>  (10) 
0

>  <butcher #P4>  (10) 
0

>  <butcher #P5>  (10) 
0

>  <butcher #P6>  (10) 
0

>  <ref_mols>  (10) 
A71x0875a

$$$$
Z3620091744
     RDKit          3D

 23 24  0  0  0  0  0  0  0  0999 V2000
   16.3358   11.2977   25.9316 C   0  0  0  0  0  0  0  0  0  0  0  0
   15.4623   11.0797   24.9513 C   0  0  0  0  0  0  0  0  0  0  0  0
   14.8416   12.1184   24.0564 C   0  0  0  0  0  0  0  0  0  0  0  0
   13.3252   12.3588   24.3063 C   0  0  0  0  0  0  0  0  0  0  0  0
   12.7403   13.0187   23.0470 C   0  0  0  0  0  0  0  0  0  0  0  0
   12.0813   12.4152   22.2308 O   0  0  0  0  0  0  0  0  0  0  0  0
   13.0336   14.3212   22.8948 O   0  0  0  0  0  0  0  0  0  0  0  0
   12.4846   14.8949   21.6830 C   0  0  0  0  0  0  0  0  0  0  0  0
   12.5367   16.3976   21.7883 C   0  0  0  0  0  0  0  0  0  0  0  0
   13.1695   13.2411   25.5540 C   0  0  0  0  0  0  0  0  0  0  0  0
   11.7438   13.2666   26.0948 C   0  0  0  0  0  0  0  0  0  0  0  0
   10.8361   12.7864   25.0529 N   0  0  0  0  0  0  0  0  0  0  0  0
    9.3308   13.5254   25.1039 S   0  0  0  0  0  6  0  0  0  0  0  0
    9.3771   14.6790   24.2187 O   0  0  0  0  0  0  0  0  0  0  0  0
    8.9858   13.6969   26.5131 O   0  0  0  0  0  0  0  0  0  0  0  0
    8.1282   12.3551   24.4411 C   0  0  2  0  0  0  0  0  0  0  0  0
    6.7999   13.1087   24.2555 C   0  0  0  0  0  0  0  0  0  0  0  0
    6.0675   12.9105   25.5845 C   0  0  0  0  0  0  0  0  0  0  0  0
    6.4574   11.5137   26.0755 C   0  0  2  0  0  0  0  0  0  0  0  0
    6.3327   11.3473   27.5842 C   0  0  0  0  0  0  0  0  0  0  0  0
    7.8688   11.2559   25.4961 C   0  0  0  0  0  0  0  0  0  0  0  0
   11.0259   11.3618   24.7301 C   0  0  0  0  0  0  0  0  0  0  0  0
   12.5299   11.0685   24.5522 C   0  0  0  0  0  0  0  0  0  0  0  0
  1  2  2  0
  2  3  1  0
  3  4  1  0
  4  5  1  0
  5  6  2  0
  5  7  1  0
  7  8  1  0
  8  9  1  0
  4 10  1  0
 10 11  1  0
 11 12  1  0
 12 13  1  0
 13 14  2  0
 13 15  2  0
 16 13  1  1
 16 17  1  0
 17 18  1  0
 18 19  1  0
 19 20  1  1
 19 21  1  0
 12 22  1  0
 22 23  1  0
 23  4  1  0
 21 16  1  0
M  END
>  <cnnaffinity>  (11) 
-5.43321

>  <cnnaffinityIC50>  (11) 
3687.9922521240414 nanomolar

>  <smiles>  (11) 
C=CCC1(C(=O)OCC)CCN(S(=O)(=O)C2CCC(C)C2)CC1

>  <origin>  (11) 
x0875_elab.sdf

>  <ref_pdb>  (11) 
x0875

>  <butcher #BAD>  (11) 
7

>  <butcher #GOOD>  (11) 
16

>  <butcher #protein clash>  (11) 
6

>  <butcher #solvent space>  (11) 
1

>  <butcher #pocket>  (11) 
16

>  <butcher #P1>  (11) 
9

>  <butcher #P2>  (11) 
3

>  <butcher #P1'>  (11) 
2

>  <butcher #P2'>  (11) 
2

>  <butcher #P3>  (11) 
0

>  <butcher #P4>  (11) 
0

>  <butcher #P5>  (11) 
0

>  <butcher #P6>  (11) 
0

>  <ref_mols>  (11) 
A71x0875a

$$$$
Z2875275486
     RDKit          3D

 23 24  0  0  0  0  0  0  0  0999 V2000
   17.3273    8.8843   24.8996 C   0  0  0  0  0  0  0  0  0  0  0  0
   16.9259   10.2031   25.5242 C   0  0  0  0  0  0  0  0  0  0  0  0
   15.5000   10.3295   25.5905 O   0  0  0  0  0  0  0  0  0  0  0  0
   14.8666   11.1624   24.7371 C   0  0  0  0  0  0  0  0  0  0  0  0
   15.3687   11.6128   23.7363 O   0  0  0  0  0  0  0  0  0  0  0  0
   13.4872   11.4703   25.2858 C   0  0  0  0  0  0  0  0  0  0  0  0
   13.3685   12.9783   25.5263 C   0  0  0  0  0  0  0  0  0  0  0  0
   11.9553   13.3059   25.9846 C   0  0  0  0  0  0  0  0  0  0  0  0
   10.9652   12.9149   24.9718 N   0  0  0  0  0  0  0  0  0  0  0  0
    9.6275   13.8875   24.9174 S   0  0  0  0  0  6  0  0  0  0  0  0
    9.9999   15.2149   24.4444 O   0  0  0  0  0  0  0  0  0  0  0  0
    8.9503   13.7340   26.1879 O   0  0  0  0  0  0  0  0  0  0  0  0
    8.6853   13.1814   23.6797 N   0  0  0  0  0  0  0  0  0  0  0  0
    7.2620   13.2953   23.7135 C   0  0  0  0  0  0  0  0  0  0  0  0
    6.6970   13.8188   22.7791 O   0  0  0  0  0  0  0  0  0  0  0  0
    6.5440   12.7242   24.8773 C   0  0  0  0  0  0  0  0  0  0  0  0
    5.3857   13.3060   25.3236 C   0  0  0  0  0  0  0  0  0  0  0  0
    4.7932   12.5538   26.7343 S   0  0  0  0  0  0  0  0  0  0  0  0
    6.0635   11.3931   26.7028 C   0  0  0  0  0  0  0  0  0  0  0  0
    6.9291   11.5755   25.6661 C   0  0  0  0  0  0  0  0  0  0  0  0
    8.1203   10.6853   25.4257 C   0  0  0  0  0  0  0  0  0  0  0  0
   11.4272   12.0624   23.8755 C   0  0  0  0  0  0  0  0  0  0  0  0
   12.2901   10.9391   24.4597 C   0  0  0  0  0  0  0  0  0  0  0  0
  1  2  1  0
  2  3  1  0
  3  4  1  0
  4  5  2  0
  4  6  1  0
  6  7  1  0
  7  8  1  0
  8  9  1  0
  9 10  1  0
 10 11  2  0
 10 12  2  0
 10 13  1  0
 13 14  1  0
 14 15  2  0
 14 16  1  0
 16 17  2  0
 17 18  1  0
 18 19  1  0
 19 20  2  0
 20 21  1  0
  9 22  1  0
 22 23  1  0
 23  6  1  0
 20 16  1  0
M  END
>  <cnnaffinity>  (12) 
-5.43168

>  <cnnaffinityIC50>  (12) 
3701.0077967063794 nanomolar

>  <smiles>  (12) 
CCOC(=O)C1CCN(S(=O)(=O)NC(=O)C2=CSC=C2C)CC1

>  <origin>  (12) 
x0875_elab.sdf

>  <ref_pdb>  (12) 
x0875

>  <butcher #BAD>  (12) 
9

>  <butcher #GOOD>  (12) 
14

>  <butcher #protein clash>  (12) 
7

>  <butcher #solvent space>  (12) 
2

>  <butcher #pocket>  (12) 
14

>  <butcher #P1>  (12) 
9

>  <butcher #P2>  (12) 
2

>  <butcher #P1'>  (12) 
1

>  <butcher #P2'>  (12) 
1

>  <butcher #P3>  (12) 
1

>  <butcher #P4>  (12) 
0

>  <butcher #P5>  (12) 
0

>  <butcher #P6>  (12) 
0

>  <ref_mols>  (12) 
A71x0875a

$$$$
Z2277202961
     RDKit          3D

 23 24  0  0  0  0  0  0  0  0999 V2000
   16.9844    8.9341   25.1111 C   0  0  0  0  0  0  0  0  0  0  0  0
   16.5401   10.3584   25.3337 C   0  0  0  0  0  0  0  0  0  0  0  0
   15.1835   10.5347   24.8582 O   0  0  0  0  0  0  0  0  0  0  0  0
   14.9005   11.7987   24.4720 C   0  0  0  0  0  0  0  0  0  0  0  0
   15.7695   12.6020   24.2167 O   0  0  0  0  0  0  0  0  0  0  0  0
   13.4241   12.1825   24.4883 C   0  0  0  0  0  0  0  0  0  0  0  0
   13.1926   13.2174   23.3700 C   0  0  0  0  0  0  0  0  0  0  0  0
   13.2238   12.8650   25.8624 C   0  0  0  0  0  0  0  0  0  0  0  0
   11.7420   13.0159   26.2323 C   0  0  0  0  0  0  0  0  0  0  0  0
   10.8569   12.7960   25.0851 N   0  0  0  0  0  0  0  0  0  0  0  0
    9.3913   13.5927   25.1279 S   0  0  0  0  0  6  0  0  0  0  0  0
    9.4170   14.6966   24.1836 O   0  0  0  0  0  0  0  0  0  0  0  0
    9.1288   13.8182   26.5435 O   0  0  0  0  0  0  0  0  0  0  0  0
    8.1541   12.4200   24.5433 C   0  0  0  0  0  0  0  0  0  0  0  0
    7.8092   11.3308   25.5716 C   0  0  0  0  0  0  0  0  0  0  0  0
    6.3924   11.4977   26.1547 C   0  0  0  0  0  0  0  0  0  0  0  0
    5.9237   10.3147   27.0261 C   0  0  0  0  0  0  0  0  0  0  0  0
    5.9745   10.5525   28.5403 C   0  0  0  0  0  0  0  0  0  0  0  0
    5.2154   11.8334   28.9618 C   0  0  0  0  0  0  0  0  0  0  0  0
    5.0335   12.8357   27.8090 C   0  0  0  0  0  0  0  0  0  0  0  0
    6.2600   12.8230   26.9091 C   0  0  0  0  0  0  0  0  0  0  0  0
   11.0080   11.5343   24.3525 C   0  0  0  0  0  0  0  0  0  0  0  0
   12.4448   11.0095   24.4198 C   0  0  0  0  0  0  0  0  0  0  0  0
  1  2  1  0
  2  3  1  0
  3  4  1  0
  4  5  2  0
  4  6  1  0
  6  7  1  0
  6  8  1  0
  8  9  1  0
  9 10  1  0
 10 11  1  0
 11 12  2  0
 11 13  2  0
 11 14  1  0
 14 15  1  0
 15 16  1  0
 16 17  1  0
 17 18  1  0
 18 19  1  0
 19 20  1  0
 20 21  1  0
 10 22  1  0
 22 23  1  0
 23  6  1  0
 21 16  1  0
M  END
>  <cnnaffinity>  (13) 
-5.42334

>  <cnnaffinityIC50>  (13) 
3772.767132886758 nanomolar

>  <smiles>  (13) 
CCOC(=O)C1(C)CCN(S(=O)(=O)CCC2CCCCC2)CC1

>  <origin>  (13) 
x0875_elab.sdf

>  <ref_pdb>  (13) 
x0875

>  <butcher #BAD>  (13) 
12

>  <butcher #GOOD>  (13) 
11

>  <butcher #protein clash>  (13) 
8

>  <butcher #solvent space>  (13) 
4

>  <butcher #pocket>  (13) 
11

>  <butcher #P1>  (13) 
7

>  <butcher #P2>  (13) 
1

>  <butcher #P1'>  (13) 
0

>  <butcher #P2'>  (13) 
3

>  <butcher #P3>  (13) 
0

>  <butcher #P4>  (13) 
0

>  <butcher #P5>  (13) 
0

>  <butcher #P6>  (13) 
0

>  <ref_mols>  (13) 
A71x0875a

$$$$
Z3503666910
     RDKit          3D

 23 24  0  0  0  0  0  0  0  0999 V2000
   16.4910    8.9619   24.9552 C   0  0  0  0  0  0  0  0  0  0  0  0
   15.1365    9.4238   24.9400 O   0  0  0  0  0  0  0  0  0  0  0  0
   14.9914   10.7434   24.6957 C   0  0  0  0  0  0  0  0  0  0  0  0
   15.8574   11.4220   24.2003 O   0  0  0  0  0  0  0  0  0  0  0  0
   13.6543   11.2505   25.2010 C   0  0  0  0  0  0  0  0  0  0  0  0
   13.6518   12.7742   25.2717 C   0  0  0  0  0  0  0  0  0  0  0  0
   12.3150   13.2393   25.8353 C   0  0  0  0  0  0  0  0  0  0  0  0
   11.2019   12.7810   24.9893 N   0  0  0  0  0  0  0  0  0  0  0  0
    9.9313   13.8508   24.9642 S   0  0  0  0  0  6  0  0  0  0  0  0
   10.4040   15.1542   24.5126 O   0  0  0  0  0  0  0  0  0  0  0  0
    9.2391   13.7338   26.2314 O   0  0  0  0  0  0  0  0  0  0  0  0
    8.9627   13.2243   23.7132 N   0  0  0  0  0  0  0  0  0  0  0  0
    7.5422   13.3382   23.7448 C   0  0  0  0  0  0  0  0  0  0  0  0
    6.9853   13.8943   22.8236 O   0  0  0  0  0  0  0  0  0  0  0  0
    6.8124   12.7212   24.8744 C   0  0  0  0  0  0  0  0  0  0  0  0
    7.1120   11.6320   25.6545 C   0  0  0  0  0  0  0  0  0  0  0  0
    8.3089   10.7385   25.5397 C   0  0  0  0  0  0  0  0  0  0  0  0
    6.0924   11.3803   26.6293 C   0  0  0  0  0  0  0  0  0  0  0  0
    5.0759   12.2643   26.5267 C   0  0  0  0  0  0  0  0  0  0  0  0
    3.9740   12.2726   27.2702 F   0  0  0  0  0  0  0  0  0  0  0  0
    5.2554   13.4102   25.2532 S   0  0  0  0  0  0  0  0  0  0  0  0
   11.5508   11.8657   23.8907 C   0  0  0  0  0  0  0  0  0  0  0  0
   12.4068   10.7189   24.4492 C   0  0  0  0  0  0  0  0  0  0  0  0
  1  2  1  0
  2  3  1  0
  3  4  2  0
  3  5  1  0
  5  6  1  0
  6  7  1  0
  7  8  1  0
  8  9  1  0
  9 10  2  0
  9 11  2  0
  9 12  1  0
 12 13  1  0
 13 14  2  0
 13 15  1  0
 15 16  2  0
 16 17  1  0
 16 18  1  0
 18 19  2  0
 19 20  1  0
 19 21  1  0
  8 22  1  0
 22 23  1  0
 23  5  1  0
 21 15  1  0
M  END
>  <cnnaffinity>  (14) 
-5.41862

>  <cnnaffinityIC50>  (14) 
3813.9939517126845 nanomolar

>  <smiles>  (14) 
COC(=O)C1CCN(S(=O)(=O)NC(=O)C2=C(C)C=C(F)S2)CC1

>  <origin>  (14) 
x0875_elab.sdf

>  <ref_pdb>  (14) 
x0875

>  <butcher #BAD>  (14) 
10

>  <butcher #GOOD>  (14) 
13

>  <butcher #protein clash>  (14) 
7

>  <butcher #solvent space>  (14) 
3

>  <butcher #pocket>  (14) 
13

>  <butcher #P1>  (14) 
9

>  <butcher #P2>  (14) 
2

>  <butcher #P1'>  (14) 
0

>  <butcher #P2'>  (14) 
1

>  <butcher #P3>  (14) 
1

>  <butcher #P4>  (14) 
0

>  <butcher #P5>  (14) 
0

>  <butcher #P6>  (14) 
0

>  <ref_mols>  (14) 
A71x0875a

$$$$
Z2156020216
     RDKit          3D

 23 24  0  0  0  0  0  0  0  0999 V2000
    6.8968   13.2500   24.3289 C   0  0  0  0  0  0  0  0  0  0  0  0
    8.3169   12.6460   24.2837 C   0  0  0  0  0  0  0  0  0  0  0  0
    9.5399   13.7250   25.0806 S   0  0  0  0  0  6  0  0  0  0  0  0
    9.6026   15.0424   24.4278 O   0  0  0  0  0  0  0  0  0  0  0  0
    9.2456   13.8232   26.5171 O   0  0  0  0  0  0  0  0  0  0  0  0
   11.1053   12.9725   24.9295 N   0  0  0  0  0  0  0  0  0  0  0  0
   12.0524   13.4338   25.9479 C   0  0  0  0  0  0  0  0  0  0  0  0
   13.4665   13.0341   25.5308 C   0  0  0  0  0  0  0  0  0  0  0  0
   13.4707   11.5376   25.8142 C   0  0  0  0  0  0  0  0  0  0  0  0
   14.8003   10.8104   25.9541 C   0  0  0  0  0  0  0  0  0  0  0  0
   15.0458    9.8422   25.2310 O   0  0  0  0  0  0  0  0  0  0  0  0
   15.5042   11.1603   27.0667 O   0  0  0  0  0  0  0  0  0  0  0  0
   16.8528   10.9498   27.0170 C   0  0  0  0  0  0  0  0  0  0  0  0
   17.5253   11.0797   25.7983 C   0  0  0  0  0  0  0  0  0  0  0  0
   16.5364   11.4273   24.3801 Cl  0  0  0  0  0  0  0  0  0  0  0  0
   18.9250   10.9755   25.7641 C   0  0  0  0  0  0  0  0  0  0  0  0
   19.6435   10.7319   26.9357 C   0  0  0  0  0  0  0  0  0  0  0  0
   21.3842   10.6344   26.8857 Cl  0  0  0  0  0  0  0  0  0  0  0  0
   18.9613   10.5786   28.1450 C   0  0  0  0  0  0  0  0  0  0  0  0
   17.5685   10.6839   28.1923 C   0  0  0  0  0  0  0  0  0  0  0  0
   16.6551   10.4525   29.8584 Br  0  0  0  0  0  0  0  0  0  0  0  0
   12.4521   10.8122   24.8638 C   0  0  0  0  0  0  0  0  0  0  0  0
   11.2366   11.6286   24.3514 C   0  0  0  0  0  0  0  0  0  0  0  0
  1  2  1  0
  2  3  1  0
  3  4  2  0
  3  5  2  0
  3  6  1  0
  6  7  1  0
  7  8  1  0
  8  9  1  0
  9 10  1  0
 10 11  2  0
 10 12  1  0
 12 13  1  0
 13 14  2  0
 14 15  1  0
 14 16  1  0
 16 17  2  0
 17 18  1  0
 17 19  1  0
 19 20  2  0
 20 21  1  0
  9 22  1  0
 22 23  1  0
 23  6  1  0
 20 13  1  0
M  END
>  <cnnaffinity>  (15) 
-5.41692

>  <cnnaffinityIC50>  (15) 
3828.952687360295 nanomolar

>  <smiles>  (15) 
CCS(=O)(=O)N1CCC(C(=O)OC2=C(Cl)C=C(Cl)C=C2Br)CC1

>  <origin>  (15) 
x0875_elab.sdf

>  <ref_pdb>  (15) 
x0875

>  <butcher #BAD>  (15) 
9

>  <butcher #GOOD>  (15) 
14

>  <butcher #protein clash>  (15) 
8

>  <butcher #solvent space>  (15) 
1

>  <butcher #pocket>  (15) 
14

>  <butcher #P1>  (15) 
5

>  <butcher #P2>  (15) 
1

>  <butcher #P1'>  (15) 
1

>  <butcher #P2'>  (15) 
7

>  <butcher #P3>  (15) 
0

>  <butcher #P4>  (15) 
0

>  <butcher #P5>  (15) 
0

>  <butcher #P6>  (15) 
0

>  <ref_mols>  (15) 
A71x0875a

$$$$
Z4457587984
     RDKit          3D

 23 24  0  0  0  0  0  0  0  0999 V2000
    4.0533   12.8658   28.5191 C   0  0  0  0  0  0  0  0  0  0  0  0
    4.5008   13.1289   27.4322 C   0  0  0  0  0  0  0  0  0  0  0  0
    5.0670   13.4933   26.1285 C   0  0  0  0  0  0  0  0  0  0  0  0
    6.5354   13.0498   25.9821 C   0  0  2  0  0  0  0  0  0  0  0  0
    7.1548   13.6760   24.7337 C   0  0  0  0  0  0  0  0  0  0  0  0
    8.5497   13.2024   24.4949 N   0  0  0  0  0  0  0  0  0  0  0  0
    9.7200   13.8785   25.4956 S   0  0  0  0  0  6  0  0  0  0  0  0
   10.2471   15.0636   24.8184 O   0  0  0  0  0  0  0  0  0  0  0  0
    9.1853   13.9869   26.8411 O   0  0  0  0  0  0  0  0  0  0  0  0
   10.9468   12.7407   25.6231 N   0  0  0  0  0  0  0  0  0  0  0  0
   12.1087   13.3987   26.2571 C   0  0  0  0  0  0  0  0  0  0  0  0
   13.4233   13.0757   25.5646 C   0  0  0  0  0  0  0  0  0  0  0  0
   13.5292   11.5562   25.6082 C   0  0  0  0  0  0  0  0  0  0  0  0
   14.8845   10.9491   25.3221 C   0  0  0  0  0  0  0  0  0  0  0  0
   15.0790    9.9517   24.6659 O   0  0  0  0  0  0  0  0  0  0  0  0
   15.8495   11.5875   26.0059 O   0  0  0  0  0  0  0  0  0  0  0  0
   17.1946   11.1220   25.8066 C   0  0  0  0  0  0  0  0  0  0  0  0
   17.5153    9.8573   26.5753 C   0  0  0  0  0  0  0  0  0  0  0  0
   12.4258   10.9055   24.7591 C   0  0  0  0  0  0  0  0  0  0  0  0
   11.2205   11.8293   24.5001 C   0  0  0  0  0  0  0  0  0  0  0  0
    6.6450   11.5461   25.8970 C   0  0  0  0  0  0  0  0  0  0  0  0
    7.9154   10.8539   26.2606 C   0  0  0  0  0  0  0  0  0  0  0  0
    6.6943   10.7068   27.1346 C   0  0  0  0  0  0  0  0  0  0  0  0
  1  2  3  0
  2  3  1  0
  4  3  1  6
  4  5  1  0
  5  6  1  0
  6  7  1  0
  7  8  2  0
  7  9  2  0
  7 10  1  0
 10 11  1  0
 11 12  1  0
 12 13  1  0
 13 14  1  0
 14 15  2  0
 14 16  1  0
 16 17  1  0
 17 18  1  0
 13 19  1  0
 19 20  1  0
  4 21  1  0
 21 22  1  0
 22 23  1  0
 20 10  1  0
 23 21  1  0
M  END
>  <cnnaffinity>  (16) 
-5.41464

>  <cnnaffinityIC50>  (16) 
3849.1071412289684 nanomolar

>  <smiles>  (16) 
C#CCC(CNS(=O)(=O)N1CCC(C(=O)OCC)CC1)C1CC1

>  <origin>  (16) 
x0875_elab.sdf

>  <ref_pdb>  (16) 
x0875

>  <butcher #BAD>  (16) 
10

>  <butcher #GOOD>  (16) 
13

>  <butcher #protein clash>  (16) 
7

>  <butcher #solvent space>  (16) 
3

>  <butcher #pocket>  (16) 
13

>  <butcher #P1>  (16) 
7

>  <butcher #P2>  (16) 
1

>  <butcher #P1'>  (16) 
1

>  <butcher #P2'>  (16) 
3

>  <butcher #P3>  (16) 
1

>  <butcher #P4>  (16) 
0

>  <butcher #P5>  (16) 
0

>  <butcher #P6>  (16) 
0

>  <ref_mols>  (16) 
A71x0875a

$$$$
Z3822773014
     RDKit          3D

 23 24  0  0  0  0  0  0  0  0999 V2000
   17.1520    8.9371   24.6886 C   0  0  0  0  0  0  0  0  0  0  0  0
   16.5121   10.0374   25.5065 C   0  0  0  0  0  0  0  0  0  0  0  0
   15.1539   10.3021   25.1111 O   0  0  0  0  0  0  0  0  0  0  0  0
   14.9965   11.3475   24.2749 C   0  0  0  0  0  0  0  0  0  0  0  0
   15.9109   11.8622   23.6810 O   0  0  0  0  0  0  0  0  0  0  0  0
   13.5941   11.8885   24.2944 C   0  0  0  0  0  0  0  0  0  0  0  0
   13.5505   12.8389   25.5081 C   0  0  0  0  0  0  0  0  0  0  0  0
   12.1252   13.0659   25.9886 C   0  0  0  0  0  0  0  0  0  0  0  0
   11.1956   12.9773   24.8521 N   0  0  0  0  0  0  0  0  0  0  0  0
    9.8186   13.8992   25.0609 S   0  0  0  0  0  6  0  0  0  0  0  0
    9.8731   15.0441   24.1568 O   0  0  0  0  0  0  0  0  0  0  0  0
    9.7041   14.1187   26.4935 O   0  0  0  0  0  0  0  0  0  0  0  0
    8.5184   12.8971   24.6036 N   0  0  0  0  0  0  0  0  0  0  0  0
    8.3872   12.7590   23.1358 C   0  0  0  0  0  0  0  0  0  0  0  0
    6.9875   13.2594   22.7415 C   0  0  0  0  0  0  0  0  0  0  0  0
    6.2037   13.3857   24.0522 C   0  0  0  0  0  0  0  0  0  0  0  0
    7.2365   13.4073   25.1824 C   0  0  1  0  0  0  0  0  0  0  0  0
    6.7971   12.6522   26.4636 C   0  0  1  0  0  0  0  0  0  0  0  0
    5.4429   13.1853   26.9745 C   0  0  0  0  0  0  0  0  0  0  0  0
    6.7436   11.1295   26.2251 C   0  0  0  0  0  0  0  0  0  0  0  0
    6.0781   10.3255   27.3413 C   0  0  0  0  0  0  0  0  0  0  0  0
   11.1290   11.6491   24.2083 C   0  0  0  0  0  0  0  0  0  0  0  0
   12.4486   10.8824   24.3599 C   0  0  0  0  0  0  0  0  0  0  0  0
  1  2  1  0
  2  3  1  0
  3  4  1  0
  4  5  2  0
  4  6  1  0
  6  7  1  0
  7  8  1  0
  8  9  1  0
  9 10  1  0
 10 11  2  0
 10 12  2  0
 10 13  1  0
 13 14  1  0
 14 15  1  0
 15 16  1  0
 17 16  1  6
 17 18  1  0
 18 19  1  6
 18 20  1  0
 20 21  1  0
  9 22  1  0
 22 23  1  0
 23  6  1  0
 17 13  1  0
M  END
>  <cnnaffinity>  (17) 
-5.41448

>  <cnnaffinityIC50>  (17) 
3850.5254659539537 nanomolar

>  <smiles>  (17) 
CCOC(=O)C1CCN(S(=O)(=O)N2CCCC2C(C)CC)CC1

>  <origin>  (17) 
x0875_elab.sdf

>  <ref_pdb>  (17) 
x0875

>  <butcher #BAD>  (17) 
9

>  <butcher #GOOD>  (17) 
14

>  <butcher #protein clash>  (17) 
8

>  <butcher #solvent space>  (17) 
1

>  <butcher #pocket>  (17) 
14

>  <butcher #P1>  (17) 
11

>  <butcher #P2>  (17) 
1

>  <butcher #P1'>  (17) 
0

>  <butcher #P2'>  (17) 
2

>  <butcher #P3>  (17) 
0

>  <butcher #P4>  (17) 
0

>  <butcher #P5>  (17) 
0

>  <butcher #P6>  (17) 
0

>  <ref_mols>  (17) 
A71x0875a

$$$$
Z3622989409
     RDKit          3D

 23 23  0  0  0  0  0  0  0  0999 V2000
   17.7488    9.7237   26.6998 C   0  0  0  0  0  0  0  0  0  0  0  0
   17.4217   10.8966   25.7987 C   0  0  0  0  0  0  0  0  0  0  0  0
   16.0652   11.3381   25.9633 O   0  0  0  0  0  0  0  0  0  0  0  0
   15.1200   10.5830   25.3794 C   0  0  0  0  0  0  0  0  0  0  0  0
   15.3504    9.5274   24.8361 O   0  0  0  0  0  0  0  0  0  0  0  0
   13.7459   11.1881   25.5765 C   0  0  0  0  0  0  0  0  0  0  0  0
   13.6696   12.6895   25.3050 C   0  0  0  0  0  0  0  0  0  0  0  0
   12.2971   13.1709   25.7701 C   0  0  0  0  0  0  0  0  0  0  0  0
   11.1902   12.3500   25.2067 N   0  0  0  0  0  0  0  0  0  0  0  0
    9.9116   13.3562   24.8232 S   0  0  0  0  0  6  0  0  0  0  0  0
   10.3263   14.1812   23.6888 O   0  0  0  0  0  0  0  0  0  0  0  0
    9.5468   13.9718   26.0848 O   0  0  0  0  0  0  0  0  0  0  0  0
    8.6714   12.3238   24.3146 N   0  0  0  0  0  0  0  0  0  0  0  0
    7.2574   12.8249   24.2604 C   0  0  1  0  0  0  0  0  0  0  0  0
    6.6770   13.1452   25.6329 C   0  0  0  0  0  0  0  0  0  0  0  0
    5.8278   11.6949   26.3487 S   0  0  0  0  0  0  0  0  0  0  0  0
    4.5817   12.5339   27.3590 C   0  0  0  0  0  0  0  0  0  0  0  0
    6.9857   13.9314   23.1043 C   0  0  0  0  0  0  0  0  0  0  0  0
    7.3360   13.3418   21.9056 C   0  0  0  0  0  0  0  0  0  0  0  0
    5.3107   14.0731   23.1851 C   0  0  0  0  0  0  0  0  0  0  0  0
    7.5824   15.3603   23.3389 C   0  0  0  0  0  0  0  0  0  0  0  0
   11.5943   11.3416   24.2166 C   0  0  0  0  0  0  0  0  0  0  0  0
   12.6724   10.4159   24.7932 C   0  0  0  0  0  0  0  0  0  0  0  0
  1  2  1  0
  2  3  1  0
  3  4  1  0
  4  5  2  0
  4  6  1  0
  6  7  1  0
  7  8  1  0
  8  9  1  0
  9 10  1  0
 10 11  2  0
 10 12  2  0
 10 13  1  0
 13 14  1  0
 14 15  1  1
 15 16  1  0
 16 17  1  0
 14 18  1  0
 18 19  1  0
 18 20  1  0
 18 21  1  0
  9 22  1  0
 22 23  1  0
 23  6  1  0
M  END
>  <cnnaffinity>  (18) 
-5.4133

>  <cnnaffinityIC50>  (18) 
3861.0017636183625 nanomolar

>  <smiles>  (18) 
CCOC(=O)C1CCN(S(=O)(=O)NC(CSC)C(C)(C)C)CC1

>  <origin>  (18) 
x0875_elab.sdf

>  <ref_pdb>  (18) 
x0875

>  <butcher #BAD>  (18) 
9

>  <butcher #GOOD>  (18) 
14

>  <butcher #protein clash>  (18) 
8

>  <butcher #solvent space>  (18) 
1

>  <butcher #pocket>  (18) 
14

>  <butcher #P1>  (18) 
8

>  <butcher #P2>  (18) 
1

>  <butcher #P1'>  (18) 
0

>  <butcher #P2'>  (18) 
4

>  <butcher #P3>  (18) 
1

>  <butcher #P4>  (18) 
0

>  <butcher #P5>  (18) 
0

>  <butcher #P6>  (18) 
0

>  <ref_mols>  (18) 
A71x0875a

$$$$
Z3345852452
     RDKit          3D

 23 24  0  0  0  0  0  0  0  0999 V2000
    5.6135   12.1323   29.5028 C   0  0  0  0  0  0  0  0  0  0  0  0
    5.5162   10.6168   29.3002 C   0  0  0  0  0  0  0  0  0  0  0  0
    4.0457   10.1971   29.4106 C   0  0  0  0  0  0  0  0  0  0  0  0
    6.3038    9.8845   30.4015 C   0  0  0  0  0  0  0  0  0  0  0  0
    6.1223   10.1857   27.9484 C   0  0  0  0  0  0  0  0  0  0  0  0
    5.8804   11.0098   26.6812 C   0  0  0  0  0  0  0  0  0  0  0  0
    6.8084   12.1785   26.3117 C   0  0  2  0  0  0  0  0  0  0  0  0
    6.1385   13.0981   25.2633 C   0  0  0  0  0  0  0  0  0  0  0  0
    7.2380   13.5719   24.2904 C   0  0  0  0  0  0  0  0  0  0  0  0
    8.4741   12.8300   24.6529 N   0  0  0  0  0  0  0  0  0  0  0  0
    9.6993   13.8553   25.1928 S   0  0  0  0  0  6  0  0  0  0  0  0
    9.6987   15.0097   24.3111 O   0  0  0  0  0  0  0  0  0  0  0  0
    9.5668   14.0450   26.6296 O   0  0  0  0  0  0  0  0  0  0  0  0
   11.0982   12.9773   24.9494 N   0  0  0  0  0  0  0  0  0  0  0  0
   12.0798   13.0754   26.0370 C   0  0  0  0  0  0  0  0  0  0  0  0
   13.4991   12.8762   25.5129 C   0  0  0  0  0  0  0  0  0  0  0  0
   13.5572   11.8804   24.3328 C   0  0  0  0  0  0  0  0  0  0  0  0
   14.9203   11.2254   24.3850 C   0  0  0  0  0  0  0  0  0  0  0  0
   15.9120   11.6660   23.8582 O   0  0  0  0  0  0  0  0  0  0  0  0
   14.9719   10.1320   25.1788 O   0  0  0  0  0  0  0  0  0  0  0  0
   12.3666   10.9218   24.3446 C   0  0  0  0  0  0  0  0  0  0  0  0
   11.0542   11.7001   24.2183 C   0  0  0  0  0  0  0  0  0  0  0  0
    8.0998   11.7463   25.5924 C   0  0  0  0  0  0  0  0  0  0  0  0
  1  2  1  0
  2  3  1  0
  2  4  1  0
  2  5  1  0
  5  6  1  0
  7  6  1  6
  7  8  1  0
  8  9  1  0
  9 10  1  0
 10 11  1  0
 11 12  2  0
 11 13  2  0
 11 14  1  0
 14 15  1  0
 15 16  1  0
 16 17  1  0
 17 18  1  0
 18 19  2  0
 18 20  1  0
 17 21  1  0
 21 22  1  0
 10 23  1  0
 23  7  1  0
 22 14  1  0
M  END
>  <cnnaffinity>  (19) 
-5.40971

>  <cnnaffinityIC50>  (19) 
3893.050165190842 nanomolar

>  <smiles>  (19) 
CC(C)(C)CCC1CCN(S(=O)(=O)N2CCC(C(=O)O)CC2)C1

>  <origin>  (19) 
x0875_elab.sdf

>  <ref_pdb>  (19) 
x0875

>  <butcher #BAD>  (19) 
12

>  <butcher #GOOD>  (19) 
11

>  <butcher #protein clash>  (19) 
7

>  <butcher #solvent space>  (19) 
5

>  <butcher #pocket>  (19) 
11

>  <butcher #P1>  (19) 
9

>  <butcher #P2>  (19) 
1

>  <butcher #P1'>  (19) 
0

>  <butcher #P2'>  (19) 
1

>  <butcher #P3>  (19) 
0

>  <butcher #P4>  (19) 
0

>  <butcher #P5>  (19) 
0

>  <butcher #P6>  (19) 
0

>  <ref_mols>  (19) 
A71x0875a

$$$$
Z5047560890
     RDKit          3D

 23 23  0  0  0  0  0  0  0  0999 V2000
   17.1264   10.5618   26.3829 C   0  0  0  0  0  0  0  0  0  0  0  0
   16.4349    9.7395   25.3115 C   0  0  0  0  0  0  0  0  0  0  0  0
   15.0891   10.1942   25.0871 O   0  0  0  0  0  0  0  0  0  0  0  0
   14.9831   11.3445   24.3901 C   0  0  0  0  0  0  0  0  0  0  0  0
   15.9385   11.9238   23.9287 O   0  0  0  0  0  0  0  0  0  0  0  0
   13.5650   11.8644   24.3368 C   0  0  0  0  0  0  0  0  0  0  0  0
   13.3881   12.8704   25.4946 C   0  0  0  0  0  0  0  0  0  0  0  0
   11.9252   13.0105   25.9258 C   0  0  0  0  0  0  0  0  0  0  0  0
   11.0110   12.7114   24.8132 N   0  0  0  0  0  0  0  0  0  0  0  0
    9.5126   13.4298   24.9568 S   0  0  0  0  0  6  0  0  0  0  0  0
    9.3647   14.4460   23.9286 O   0  0  0  0  0  0  0  0  0  0  0  0
    9.3309   13.7682   26.3647 O   0  0  0  0  0  0  0  0  0  0  0  0
    8.4533   12.1726   24.6007 N   0  0  0  0  0  0  0  0  0  0  0  0
    7.1754   12.5622   23.9895 C   0  0  0  0  0  0  0  0  0  0  0  0
    6.2335   13.3656   24.8959 C   0  0  0  0  0  0  0  0  0  0  0  0
    6.0370   12.7548   26.2183 C   0  0  0  0  0  0  0  0  0  0  0  0
    5.8705   12.2657   27.3097 C   0  0  0  0  0  0  0  0  0  0  0  0
    5.4598   11.7527   28.6269 C   0  0  0  0  0  0  0  0  0  0  0  0
    4.2449   10.8322   28.4295 C   0  0  0  0  0  0  0  0  0  0  0  0
    6.5817   10.9769   29.3358 C   0  0  0  0  0  0  0  0  0  0  0  0
    5.0307   12.9494   29.4945 C   0  0  0  0  0  0  0  0  0  0  0  0
   11.1045   11.3507   24.2453 C   0  0  0  0  0  0  0  0  0  0  0  0
   12.5087   10.7709   24.4178 C   0  0  0  0  0  0  0  0  0  0  0  0
  1  2  1  0
  2  3  1  0
  3  4  1  0
  4  5  2  0
  4  6  1  0
  6  7  1  0
  7  8  1  0
  8  9  1  0
  9 10  1  0
 10 11  2  0
 10 12  2  0
 10 13  1  0
 13 14  1  0
 14 15  1  0
 15 16  1  0
 16 17  3  0
 17 18  1  0
 18 19  1  0
 18 20  1  0
 18 21  1  0
  9 22  1  0
 22 23  1  0
 23  6  1  0
M  END
>  <cnnaffinity>  (20) 
-5.40509

>  <cnnaffinityIC50>  (20) 
3934.685274774329 nanomolar

>  <smiles>  (20) 
CCOC(=O)C1CCN(S(=O)(=O)NCCC#CC(C)(C)C)CC1

>  <origin>  (20) 
x0875_elab.sdf

>  <ref_pdb>  (20) 
x0875

>  <butcher #BAD>  (20) 
12

>  <butcher #GOOD>  (20) 
11

>  <butcher #protein clash>  (20) 
8

>  <butcher #solvent space>  (20) 
4

>  <butcher #pocket>  (20) 
11

>  <butcher #P1>  (20) 
8

>  <butcher #P2>  (20) 
1

>  <butcher #P1'>  (20) 
0

>  <butcher #P2'>  (20) 
2

>  <butcher #P3>  (20) 
0

>  <butcher #P4>  (20) 
0

>  <butcher #P5>  (20) 
0

>  <butcher #P6>  (20) 
0

>  <ref_mols>  (20) 
A71x0875a

$$$$
